*SPEF "ieee 1481-1999"
*DESIGN "buffer"
*DATE "11:11:11 Fri 11 11, 1111"
*VENDOR "OpenRCX"
*PROGRAM "Parallel Extraction"
*VERSION "1.0"
*DESIGN_FLOW "NAME_SCOPE LOCAL" "PIN_CAP NONE"
*DIVIDER /
*DELIMITER :
*BUS_DELIMITER []
*T_UNIT 1 NS
*C_UNIT 1 PF
*R_UNIT 1 OHM
*L_UNIT 1 HENRY

*NAME_MAP
*3 in
*4 out
*5 net1
*6 net2
*7 FILLER_0_19
*8 FILLER_0_27
*9 FILLER_0_29
*10 FILLER_0_41
*11 FILLER_0_53
*12 FILLER_0_57
*13 FILLER_0_7
*14 FILLER_10_15
*15 FILLER_10_27
*16 FILLER_10_29
*17 FILLER_10_3
*18 FILLER_10_41
*19 FILLER_10_53
*20 FILLER_10_57
*21 FILLER_10_61
*22 FILLER_1_15
*23 FILLER_1_27
*24 FILLER_1_3
*25 FILLER_1_39
*26 FILLER_1_51
*27 FILLER_1_55
*28 FILLER_1_57
*29 FILLER_2_15
*30 FILLER_2_27
*31 FILLER_2_29
*32 FILLER_2_3
*33 FILLER_2_41
*34 FILLER_2_53
*35 FILLER_3_15
*36 FILLER_3_27
*37 FILLER_3_3
*38 FILLER_3_39
*39 FILLER_3_51
*40 FILLER_3_55
*41 FILLER_3_57
*42 FILLER_4_15
*43 FILLER_4_27
*44 FILLER_4_29
*45 FILLER_4_3
*46 FILLER_4_41
*47 FILLER_4_53
*48 FILLER_5_15
*49 FILLER_5_27
*50 FILLER_5_3
*51 FILLER_5_31
*52 FILLER_5_35
*53 FILLER_5_47
*54 FILLER_5_55
*55 FILLER_5_57
*56 FILLER_6_15
*57 FILLER_6_27
*58 FILLER_6_29
*59 FILLER_6_3
*60 FILLER_6_41
*61 FILLER_6_53
*62 FILLER_7_15
*63 FILLER_7_27
*64 FILLER_7_3
*65 FILLER_7_39
*66 FILLER_7_51
*67 FILLER_7_55
*68 FILLER_7_57
*69 FILLER_8_15
*70 FILLER_8_27
*71 FILLER_8_29
*72 FILLER_8_3
*73 FILLER_8_41
*74 FILLER_8_53
*75 FILLER_9_15
*76 FILLER_9_27
*77 FILLER_9_3
*78 FILLER_9_39
*79 FILLER_9_51
*80 FILLER_9_55
*81 FILLER_9_57
*82 PHY_0
*83 PHY_1
*84 PHY_10
*85 PHY_11
*86 PHY_12
*87 PHY_13
*88 PHY_14
*89 PHY_15
*90 PHY_16
*91 PHY_17
*92 PHY_18
*93 PHY_19
*94 PHY_2
*95 PHY_20
*96 PHY_21
*97 PHY_3
*98 PHY_4
*99 PHY_5
*100 PHY_6
*101 PHY_7
*102 PHY_8
*103 PHY_9
*104 TAP_22
*105 TAP_23
*106 TAP_24
*107 TAP_25
*108 TAP_26
*109 TAP_27
*110 TAP_28
*111 TAP_29
*112 TAP_30
*113 TAP_31
*114 TAP_32
*115 TAP_33
*116 TAP_34
*117 _0_
*118 input1
*119 output2

*PORTS
in I
out O

*D_NET *3 0.00160767
*CONN
*P in I
*I *118:A I *D sky130_fd_sc_hd__clkbuf_1
*CAP
1 in 0.000803837
2 *118:A 0.000803837
*RES
1 in *118:A 18.345 
*END

*D_NET *4 0.00124892
*CONN
*P out O
*I *119:X O *D sky130_fd_sc_hd__buf_2
*CAP
1 out 0.00062446
2 *119:X 0.00062446
*RES
1 *119:X out 15.015 
*END

*D_NET *5 0.00196825
*CONN
*I *117:A I *D sky130_fd_sc_hd__clkbuf_1
*I *118:X O *D sky130_fd_sc_hd__clkbuf_1
*CAP
1 *117:A 0.000984123
2 *118:X 0.000984123
*RES
1 *118:X *117:A 25.23 
*END

*D_NET *6 0.00207371
*CONN
*I *119:A I *D sky130_fd_sc_hd__buf_2
*I *117:X O *D sky130_fd_sc_hd__clkbuf_1
*CAP
1 *119:A 0.00103685
2 *117:X 0.00103685
*RES
1 *117:X *119:A 26.175 
*END
