*SPEF "ieee 1481-1999"
*DESIGN "tri_state_buffer"
*DATE "11:11:11 Fri 11 11, 1111"
*VENDOR "OpenRCX"
*PROGRAM "Parallel Extraction"
*VERSION "1.0"
*DESIGN_FLOW "NAME_SCOPE LOCAL" "PIN_CAP NONE"
*DIVIDER /
*DELIMITER :
*BUS_DELIMITER []
*T_UNIT 1 NS
*C_UNIT 1 PF
*R_UNIT 1 OHM
*L_UNIT 1 HENRY

*NAME_MAP
*3 enable
*4 in
*5 out
*6 _0_
*7 net1
*8 net2
*9 FILLER_0_109
*10 FILLER_0_113
*11 FILLER_0_18
*12 FILLER_0_26
*13 FILLER_0_29
*14 FILLER_0_41
*15 FILLER_0_53
*16 FILLER_0_57
*17 FILLER_0_6
*18 FILLER_0_69
*19 FILLER_0_81
*20 FILLER_0_85
*21 FILLER_0_97
*22 FILLER_10_109
*23 FILLER_10_115
*24 FILLER_10_15
*25 FILLER_10_27
*26 FILLER_10_29
*27 FILLER_10_3
*28 FILLER_10_41
*29 FILLER_10_53
*30 FILLER_10_65
*31 FILLER_10_77
*32 FILLER_10_83
*33 FILLER_10_85
*34 FILLER_10_97
*35 FILLER_11_105
*36 FILLER_11_111
*37 FILLER_11_113
*38 FILLER_11_15
*39 FILLER_11_27
*40 FILLER_11_3
*41 FILLER_11_39
*42 FILLER_11_51
*43 FILLER_11_55
*44 FILLER_11_57
*45 FILLER_11_69
*46 FILLER_11_81
*47 FILLER_11_93
*48 FILLER_12_109
*49 FILLER_12_115
*50 FILLER_12_15
*51 FILLER_12_27
*52 FILLER_12_29
*53 FILLER_12_3
*54 FILLER_12_41
*55 FILLER_12_53
*56 FILLER_12_65
*57 FILLER_12_77
*58 FILLER_12_83
*59 FILLER_12_85
*60 FILLER_12_97
*61 FILLER_13_105
*62 FILLER_13_111
*63 FILLER_13_113
*64 FILLER_13_15
*65 FILLER_13_27
*66 FILLER_13_3
*67 FILLER_13_39
*68 FILLER_13_51
*69 FILLER_13_55
*70 FILLER_13_57
*71 FILLER_13_69
*72 FILLER_13_81
*73 FILLER_13_93
*74 FILLER_14_109
*75 FILLER_14_115
*76 FILLER_14_15
*77 FILLER_14_27
*78 FILLER_14_29
*79 FILLER_14_3
*80 FILLER_14_41
*81 FILLER_14_53
*82 FILLER_14_65
*83 FILLER_14_77
*84 FILLER_14_83
*85 FILLER_14_85
*86 FILLER_14_97
*87 FILLER_15_105
*88 FILLER_15_111
*89 FILLER_15_113
*90 FILLER_15_15
*91 FILLER_15_27
*92 FILLER_15_3
*93 FILLER_15_39
*94 FILLER_15_51
*95 FILLER_15_55
*96 FILLER_15_57
*97 FILLER_15_69
*98 FILLER_15_81
*99 FILLER_15_93
*100 FILLER_16_109
*101 FILLER_16_115
*102 FILLER_16_15
*103 FILLER_16_27
*104 FILLER_16_29
*105 FILLER_16_3
*106 FILLER_16_41
*107 FILLER_16_53
*108 FILLER_16_65
*109 FILLER_16_77
*110 FILLER_16_83
*111 FILLER_16_85
*112 FILLER_16_97
*113 FILLER_17_105
*114 FILLER_17_111
*115 FILLER_17_113
*116 FILLER_17_15
*117 FILLER_17_27
*118 FILLER_17_3
*119 FILLER_17_39
*120 FILLER_17_51
*121 FILLER_17_55
*122 FILLER_17_57
*123 FILLER_17_69
*124 FILLER_17_81
*125 FILLER_17_93
*126 FILLER_18_109
*127 FILLER_18_115
*128 FILLER_18_15
*129 FILLER_18_27
*130 FILLER_18_29
*131 FILLER_18_3
*132 FILLER_18_41
*133 FILLER_18_53
*134 FILLER_18_65
*135 FILLER_18_77
*136 FILLER_18_83
*137 FILLER_18_85
*138 FILLER_18_97
*139 FILLER_19_109
*140 FILLER_19_113
*141 FILLER_19_15
*142 FILLER_19_27
*143 FILLER_19_29
*144 FILLER_19_3
*145 FILLER_19_34
*146 FILLER_19_46
*147 FILLER_19_54
*148 FILLER_19_57
*149 FILLER_19_69
*150 FILLER_19_81
*151 FILLER_19_85
*152 FILLER_19_97
*153 FILLER_1_105
*154 FILLER_1_111
*155 FILLER_1_113
*156 FILLER_1_15
*157 FILLER_1_27
*158 FILLER_1_3
*159 FILLER_1_39
*160 FILLER_1_51
*161 FILLER_1_55
*162 FILLER_1_57
*163 FILLER_1_69
*164 FILLER_1_81
*165 FILLER_1_93
*166 FILLER_2_109
*167 FILLER_2_115
*168 FILLER_2_15
*169 FILLER_2_27
*170 FILLER_2_29
*171 FILLER_2_3
*172 FILLER_2_41
*173 FILLER_2_53
*174 FILLER_2_65
*175 FILLER_2_77
*176 FILLER_2_83
*177 FILLER_2_85
*178 FILLER_2_97
*179 FILLER_3_105
*180 FILLER_3_111
*181 FILLER_3_113
*182 FILLER_3_15
*183 FILLER_3_27
*184 FILLER_3_3
*185 FILLER_3_39
*186 FILLER_3_51
*187 FILLER_3_55
*188 FILLER_3_57
*189 FILLER_3_69
*190 FILLER_3_81
*191 FILLER_3_93
*192 FILLER_4_109
*193 FILLER_4_115
*194 FILLER_4_15
*195 FILLER_4_27
*196 FILLER_4_29
*197 FILLER_4_3
*198 FILLER_4_41
*199 FILLER_4_53
*200 FILLER_4_65
*201 FILLER_4_77
*202 FILLER_4_83
*203 FILLER_4_85
*204 FILLER_4_97
*205 FILLER_5_105
*206 FILLER_5_111
*207 FILLER_5_113
*208 FILLER_5_15
*209 FILLER_5_23
*210 FILLER_5_28
*211 FILLER_5_3
*212 FILLER_5_40
*213 FILLER_5_52
*214 FILLER_5_57
*215 FILLER_5_69
*216 FILLER_5_81
*217 FILLER_5_93
*218 FILLER_6_109
*219 FILLER_6_115
*220 FILLER_6_15
*221 FILLER_6_27
*222 FILLER_6_29
*223 FILLER_6_3
*224 FILLER_6_51
*225 FILLER_6_63
*226 FILLER_6_75
*227 FILLER_6_83
*228 FILLER_6_85
*229 FILLER_6_97
*230 FILLER_7_105
*231 FILLER_7_111
*232 FILLER_7_113
*233 FILLER_7_15
*234 FILLER_7_27
*235 FILLER_7_3
*236 FILLER_7_39
*237 FILLER_7_51
*238 FILLER_7_55
*239 FILLER_7_57
*240 FILLER_7_69
*241 FILLER_7_81
*242 FILLER_7_93
*243 FILLER_8_109
*244 FILLER_8_115
*245 FILLER_8_15
*246 FILLER_8_27
*247 FILLER_8_29
*248 FILLER_8_3
*249 FILLER_8_41
*250 FILLER_8_53
*251 FILLER_8_65
*252 FILLER_8_77
*253 FILLER_8_83
*254 FILLER_8_85
*255 FILLER_8_97
*256 FILLER_9_105
*257 FILLER_9_111
*258 FILLER_9_113
*259 FILLER_9_15
*260 FILLER_9_27
*261 FILLER_9_3
*262 FILLER_9_39
*263 FILLER_9_51
*264 FILLER_9_55
*265 FILLER_9_57
*266 FILLER_9_69
*267 FILLER_9_81
*268 FILLER_9_93
*269 PHY_0
*270 PHY_1
*271 PHY_10
*272 PHY_11
*273 PHY_12
*274 PHY_13
*275 PHY_14
*276 PHY_15
*277 PHY_16
*278 PHY_17
*279 PHY_18
*280 PHY_19
*281 PHY_2
*282 PHY_20
*283 PHY_21
*284 PHY_22
*285 PHY_23
*286 PHY_24
*287 PHY_25
*288 PHY_26
*289 PHY_27
*290 PHY_28
*291 PHY_29
*292 PHY_3
*293 PHY_30
*294 PHY_31
*295 PHY_32
*296 PHY_33
*297 PHY_34
*298 PHY_35
*299 PHY_36
*300 PHY_37
*301 PHY_38
*302 PHY_39
*303 PHY_4
*304 PHY_5
*305 PHY_6
*306 PHY_7
*307 PHY_8
*308 PHY_9
*309 TAP_40
*310 TAP_41
*311 TAP_42
*312 TAP_43
*313 TAP_44
*314 TAP_45
*315 TAP_46
*316 TAP_47
*317 TAP_48
*318 TAP_49
*319 TAP_50
*320 TAP_51
*321 TAP_52
*322 TAP_53
*323 TAP_54
*324 TAP_55
*325 TAP_56
*326 TAP_57
*327 TAP_58
*328 TAP_59
*329 TAP_60
*330 TAP_61
*331 TAP_62
*332 TAP_63
*333 TAP_64
*334 TAP_65
*335 TAP_66
*336 TAP_67
*337 TAP_68
*338 TAP_69
*339 TAP_70
*340 TAP_71
*341 TAP_72
*342 TAP_73
*343 TAP_74
*344 TAP_75
*345 TAP_76
*346 TAP_77
*347 TAP_78
*348 TAP_79
*349 TAP_80
*350 TAP_81
*351 TAP_82
*352 TAP_83
*353 _1_
*354 _2_
*355 input1
*356 input2

*PORTS
enable I
in I
out O

*D_NET *3 0.00126304
*CONN
*P enable I
*I *355:A I *D sky130_fd_sc_hd__clkbuf_1
*CAP
1 enable 0.000631522
2 *355:A 0.000631522
*RES
1 enable *355:A 15.18 
*END

*D_NET *4 0.000850237
*CONN
*P in I
*I *356:A I *D sky130_fd_sc_hd__clkbuf_1
*CAP
1 in 0.000425118
2 *356:A 0.000425118
*RES
1 in *356:A 11.76 
*END

*D_NET *5 0.00399567
*CONN
*P out O
*I *354:Z O *D sky130_fd_sc_hd__ebufn_8
*CAP
1 out 0.00199784
2 *354:Z 0.00199784
*RES
1 *354:Z out 35.0286 
*END

*D_NET *6 0.000366032
*CONN
*I *354:TE_B I *D sky130_fd_sc_hd__ebufn_8
*I *353:Y O *D sky130_fd_sc_hd__inv_2
*CAP
1 *354:TE_B 0.000183016
2 *353:Y 0.000183016
*RES
1 *353:Y *354:TE_B 10.5 
*END

*D_NET *7 0.00182557
*CONN
*I *353:A I *D sky130_fd_sc_hd__inv_2
*I *355:X O *D sky130_fd_sc_hd__clkbuf_1
*CAP
1 *353:A 0.000912787
2 *355:X 0.000912787
*RES
1 *355:X *353:A 24 
*END

*D_NET *8 0.00300945
*CONN
*I *354:A I *D sky130_fd_sc_hd__ebufn_8
*I *356:X O *D sky130_fd_sc_hd__clkbuf_1
*CAP
1 *354:A 0.00150473
2 *356:X 0.00150473
*RES
1 *356:X *354:A 35.685 
*END
