* NGSPICE file created from multiplexer.ext - technology: sky130A

* Black-box entry subcircuit for sky130_fd_sc_hd__tapvpwrvgnd_1 abstract view
.subckt sky130_fd_sc_hd__tapvpwrvgnd_1 VGND VPWR
.ends

* Black-box entry subcircuit for sky130_ef_sc_hd__decap_12 abstract view
.subckt sky130_ef_sc_hd__decap_12 VGND VPWR VPB VNB
.ends

* Black-box entry subcircuit for sky130_fd_sc_hd__decap_6 abstract view
.subckt sky130_fd_sc_hd__decap_6 VGND VNB VPB VPWR
.ends

* Black-box entry subcircuit for sky130_fd_sc_hd__fill_1 abstract view
.subckt sky130_fd_sc_hd__fill_1 VGND VNB VPB VPWR
.ends

* Black-box entry subcircuit for sky130_fd_sc_hd__decap_8 abstract view
.subckt sky130_fd_sc_hd__decap_8 VGND VNB VPB VPWR
.ends

* Black-box entry subcircuit for sky130_fd_sc_hd__decap_4 abstract view
.subckt sky130_fd_sc_hd__decap_4 VGND VNB VPB VPWR
.ends

* Black-box entry subcircuit for sky130_fd_sc_hd__fill_2 abstract view
.subckt sky130_fd_sc_hd__fill_2 VGND VNB VPB VPWR
.ends

* Black-box entry subcircuit for sky130_fd_sc_hd__decap_3 abstract view
.subckt sky130_fd_sc_hd__decap_3 VGND VNB VPB VPWR
.ends

* Black-box entry subcircuit for sky130_fd_sc_hd__buf_2 abstract view
.subckt sky130_fd_sc_hd__buf_2 A VGND VNB VPB VPWR X
.ends

* Black-box entry subcircuit for sky130_fd_sc_hd__clkbuf_1 abstract view
.subckt sky130_fd_sc_hd__clkbuf_1 A VGND VNB VPB VPWR X
.ends

* Black-box entry subcircuit for sky130_fd_sc_hd__mux2_1 abstract view
.subckt sky130_fd_sc_hd__mux2_1 A0 A1 S VGND VNB VPB VPWR X
.ends

* Black-box entry subcircuit for sky130_fd_sc_hd__mux4_1 abstract view
.subckt sky130_fd_sc_hd__mux4_1 A0 A1 A2 A3 S0 S1 VGND VNB VPB VPWR X
.ends

* Black-box entry subcircuit for sky130_fd_sc_hd__dlymetal6s2s_1 abstract view
.subckt sky130_fd_sc_hd__dlymetal6s2s_1 A VGND VNB VPB VPWR X
.ends

.subckt multiplexer VGND VPWR in[0] in[1] in[2] in[3] in[4] in[5] in[6] in[7] out
+ sel[0] sel[1] sel[2]
XTAP_199 VGND VPWR sky130_fd_sc_hd__tapvpwrvgnd_1
XTAP_188 VGND VPWR sky130_fd_sc_hd__tapvpwrvgnd_1
XTAP_177 VGND VPWR sky130_fd_sc_hd__tapvpwrvgnd_1
XFILLER_22_177 VGND VPWR VPWR VGND sky130_ef_sc_hd__decap_12
XFILLER_22_133 VGND VGND VPWR VPWR sky130_fd_sc_hd__decap_6
XFILLER_26_85 VGND VPWR VPWR VGND sky130_ef_sc_hd__decap_12
XFILLER_26_41 VGND VPWR VPWR VGND sky130_ef_sc_hd__decap_12
XFILLER_13_111 VGND VGND VPWR VPWR sky130_fd_sc_hd__fill_1
XFILLER_9_137 VGND VPWR VPWR VGND sky130_ef_sc_hd__decap_12
XFILLER_27_225 VGND VGND VPWR VPWR sky130_fd_sc_hd__decap_8
XFILLER_37_51 VGND VGND VPWR VPWR sky130_fd_sc_hd__decap_4
XFILLER_33_217 VGND VGND VPWR VPWR sky130_fd_sc_hd__decap_6
XFILLER_12_65 VGND VPWR VPWR VGND sky130_ef_sc_hd__decap_12
XFILLER_30_209 VGND VPWR VPWR VGND sky130_ef_sc_hd__decap_12
XFILLER_15_217 VGND VGND VPWR VPWR sky130_fd_sc_hd__decap_6
XFILLER_2_165 VGND VPWR VPWR VGND sky130_ef_sc_hd__decap_12
XFILLER_2_121 VGND VPWR VPWR VGND sky130_ef_sc_hd__decap_12
XFILLER_0_57 VGND VPWR VPWR VGND sky130_ef_sc_hd__decap_12
XFILLER_9_55 VGND VGND VPWR VPWR sky130_fd_sc_hd__fill_1
XFILLER_12_209 VGND VPWR VPWR VGND sky130_ef_sc_hd__decap_12
XFILLER_38_139 VGND VGND VPWR VPWR sky130_fd_sc_hd__fill_1
XFILLER_34_85 VGND VPWR VPWR VGND sky130_ef_sc_hd__decap_12
XFILLER_34_41 VGND VPWR VPWR VGND sky130_ef_sc_hd__decap_12
XFILLER_18_97 VGND VPWR VPWR VGND sky130_ef_sc_hd__decap_12
XFILLER_18_53 VGND VPWR VPWR VGND sky130_ef_sc_hd__decap_12
XFILLER_37_161 VGND VGND VPWR VPWR sky130_fd_sc_hd__decap_6
XFILLER_20_65 VGND VPWR VPWR VGND sky130_ef_sc_hd__decap_12
XFILLER_34_197 VGND VPWR VPWR VGND sky130_ef_sc_hd__decap_12
XFILLER_34_153 VGND VPWR VPWR VGND sky130_ef_sc_hd__decap_12
XFILLER_26_109 VGND VPWR VPWR VGND sky130_ef_sc_hd__decap_12
XFILLER_13_3 VGND VPWR VPWR VGND sky130_ef_sc_hd__decap_12
XFILLER_31_167 VGND VGND VPWR VPWR sky130_fd_sc_hd__fill_1
XFILLER_16_197 VGND VPWR VPWR VGND sky130_ef_sc_hd__decap_12
XFILLER_16_153 VGND VPWR VPWR VGND sky130_ef_sc_hd__decap_12
XTAP_189 VGND VPWR sky130_fd_sc_hd__tapvpwrvgnd_1
XTAP_178 VGND VPWR sky130_fd_sc_hd__tapvpwrvgnd_1
XFILLER_22_189 VGND VGND VPWR VPWR sky130_fd_sc_hd__decap_6
XTAP_167 VGND VPWR sky130_fd_sc_hd__tapvpwrvgnd_1
XTAP_156 VGND VPWR sky130_fd_sc_hd__tapvpwrvgnd_1
XTAP_145 VGND VPWR sky130_fd_sc_hd__tapvpwrvgnd_1
XTAP_134 VGND VPWR sky130_fd_sc_hd__tapvpwrvgnd_1
XTAP_101 VGND VPWR sky130_fd_sc_hd__tapvpwrvgnd_1
XTAP_112 VGND VPWR sky130_fd_sc_hd__tapvpwrvgnd_1
XTAP_123 VGND VPWR sky130_fd_sc_hd__tapvpwrvgnd_1
XFILLER_26_97 VGND VPWR VPWR VGND sky130_ef_sc_hd__decap_12
XFILLER_26_53 VGND VPWR VPWR VGND sky130_ef_sc_hd__decap_12
XFILLER_13_167 VGND VGND VPWR VPWR sky130_fd_sc_hd__fill_1
XFILLER_3_57 VGND VPWR VPWR VGND sky130_ef_sc_hd__decap_12
XFILLER_9_105 VGND VGND VPWR VPWR sky130_fd_sc_hd__decap_6
XFILLER_9_149 VGND VPWR VPWR VGND sky130_ef_sc_hd__decap_12
XFILLER_12_77 VGND VGND VPWR VPWR sky130_fd_sc_hd__decap_6
XFILLER_2_177 VGND VPWR VPWR VGND sky130_ef_sc_hd__decap_12
XFILLER_2_133 VGND VGND VPWR VPWR sky130_fd_sc_hd__decap_6
XFILLER_0_69 VGND VGND VPWR VPWR sky130_fd_sc_hd__decap_4
XFILLER_20_221 VGND VPWR VPWR VGND sky130_ef_sc_hd__decap_12
XFILLER_34_97 VGND VPWR VPWR VGND sky130_ef_sc_hd__decap_12
XFILLER_34_53 VGND VPWR VPWR VGND sky130_ef_sc_hd__decap_12
XFILLER_18_65 VGND VPWR VPWR VGND sky130_ef_sc_hd__decap_12
XFILLER_7_225 VGND VGND VPWR VPWR sky130_fd_sc_hd__decap_8
XFILLER_20_77 VGND VGND VPWR VPWR sky130_fd_sc_hd__decap_6
XFILLER_34_121 VGND VPWR VPWR VGND sky130_ef_sc_hd__decap_12
XFILLER_28_195 VGND VGND VPWR VPWR sky130_fd_sc_hd__fill_1
XFILLER_34_165 VGND VPWR VPWR VGND sky130_ef_sc_hd__decap_12
XFILLER_15_55 VGND VGND VPWR VPWR sky130_fd_sc_hd__fill_1
XFILLER_31_113 VGND VPWR VPWR VGND sky130_ef_sc_hd__decap_12
XFILLER_16_165 VGND VPWR VPWR VGND sky130_ef_sc_hd__decap_12
XFILLER_16_121 VGND VPWR VPWR VGND sky130_ef_sc_hd__decap_12
XFILLER_0_231 VGND VGND VPWR VPWR sky130_fd_sc_hd__decap_4
XTAP_179 VGND VPWR sky130_fd_sc_hd__tapvpwrvgnd_1
XTAP_168 VGND VPWR sky130_fd_sc_hd__tapvpwrvgnd_1
XTAP_157 VGND VPWR sky130_fd_sc_hd__tapvpwrvgnd_1
XTAP_146 VGND VPWR sky130_fd_sc_hd__tapvpwrvgnd_1
XTAP_135 VGND VPWR sky130_fd_sc_hd__tapvpwrvgnd_1
XTAP_102 VGND VPWR sky130_fd_sc_hd__tapvpwrvgnd_1
XTAP_113 VGND VPWR sky130_fd_sc_hd__tapvpwrvgnd_1
XTAP_124 VGND VPWR sky130_fd_sc_hd__tapvpwrvgnd_1
XFILLER_26_65 VGND VPWR VPWR VGND sky130_ef_sc_hd__decap_12
XFILLER_13_113 VGND VPWR VPWR VGND sky130_ef_sc_hd__decap_12
XFILLER_3_69 VGND VPWR VPWR VGND sky130_ef_sc_hd__decap_12
XFILLER_27_205 VGND VPWR VPWR VGND sky130_ef_sc_hd__decap_12
XFILLER_6_109 VGND VPWR VPWR VGND sky130_ef_sc_hd__decap_12
XFILLER_23_55 VGND VGND VPWR VPWR sky130_fd_sc_hd__fill_1
XFILLER_2_189 VGND VGND VPWR VPWR sky130_fd_sc_hd__decap_6
XFILLER_0_26 VGND VGND VPWR VPWR sky130_fd_sc_hd__fill_2
XFILLER_3_3 VGND VPWR VPWR VGND sky130_ef_sc_hd__decap_12
XFILLER_36_3 VGND VPWR VPWR VGND sky130_ef_sc_hd__decap_12
XFILLER_20_233 VGND VGND VPWR VPWR sky130_fd_sc_hd__fill_2
XFILLER_9_57 VGND VPWR VPWR VGND sky130_ef_sc_hd__decap_12
XFILLER_34_65 VGND VPWR VPWR VGND sky130_ef_sc_hd__decap_12
XFILLER_18_77 VGND VGND VPWR VPWR sky130_fd_sc_hd__decap_6
XFILLER_11_233 VGND VGND VPWR VPWR sky130_fd_sc_hd__fill_2
XFILLER_28_141 VGND VPWR VPWR VGND sky130_ef_sc_hd__decap_12
XFILLER_34_177 VGND VPWR VPWR VGND sky130_ef_sc_hd__decap_12
XFILLER_34_133 VGND VGND VPWR VPWR sky130_fd_sc_hd__decap_6
XFILLER_31_55 VGND VGND VPWR VPWR sky130_fd_sc_hd__fill_1
XFILLER_25_111 VGND VGND VPWR VPWR sky130_fd_sc_hd__fill_1
XFILLER_16_133 VGND VGND VPWR VPWR sky130_fd_sc_hd__decap_6
XFILLER_0_221 VGND VGND VPWR VPWR sky130_fd_sc_hd__decap_3
XFILLER_39_225 VGND VGND VPWR VPWR sky130_fd_sc_hd__decap_3
XFILLER_31_169 VGND VPWR VPWR VGND sky130_ef_sc_hd__decap_12
XFILLER_31_125 VGND VPWR VPWR VGND sky130_ef_sc_hd__decap_12
XTAP_169 VGND VPWR sky130_fd_sc_hd__tapvpwrvgnd_1
XTAP_158 VGND VPWR sky130_fd_sc_hd__tapvpwrvgnd_1
XFILLER_16_177 VGND VPWR VPWR VGND sky130_ef_sc_hd__decap_12
XTAP_147 VGND VPWR sky130_fd_sc_hd__tapvpwrvgnd_1
XTAP_136 VGND VPWR sky130_fd_sc_hd__tapvpwrvgnd_1
XTAP_103 VGND VPWR sky130_fd_sc_hd__tapvpwrvgnd_1
XTAP_114 VGND VPWR sky130_fd_sc_hd__tapvpwrvgnd_1
XTAP_125 VGND VPWR sky130_fd_sc_hd__tapvpwrvgnd_1
XFILLER_26_77 VGND VGND VPWR VPWR sky130_fd_sc_hd__decap_6
XFILLER_13_169 VGND VPWR VPWR VGND sky130_ef_sc_hd__decap_12
XFILLER_13_125 VGND VPWR VPWR VGND sky130_ef_sc_hd__decap_12
XFILLER_3_15 VGND VPWR VPWR VGND sky130_ef_sc_hd__decap_12
XFILLER_8_195 VGND VGND VPWR VPWR sky130_fd_sc_hd__fill_1
XFILLER_27_217 VGND VGND VPWR VPWR sky130_fd_sc_hd__decap_6
XFILLER_10_139 VGND VGND VPWR VPWR sky130_fd_sc_hd__fill_1
XFILLER_24_209 VGND VPWR VPWR VGND sky130_ef_sc_hd__decap_12
XFILLER_29_3 VGND VPWR VPWR VGND sky130_ef_sc_hd__decap_12
XFILLER_9_69 VGND VPWR VPWR VGND sky130_ef_sc_hd__decap_12
XFILLER_34_77 VGND VGND VPWR VPWR sky130_fd_sc_hd__decap_6
XFILLER_11_223 VGND VGND VPWR VPWR sky130_fd_sc_hd__fill_1
XFILLER_38_109 VGND VPWR VPWR VGND sky130_ef_sc_hd__decap_12
XFILLER_7_205 VGND VPWR VPWR VGND sky130_ef_sc_hd__decap_12
XFILLER_1_81 VGND VPWR VPWR VGND sky130_ef_sc_hd__decap_12
XFILLER_29_55 VGND VGND VPWR VPWR sky130_fd_sc_hd__fill_1
XFILLER_28_197 VGND VPWR VPWR VGND sky130_ef_sc_hd__decap_12
XFILLER_28_153 VGND VPWR VPWR VGND sky130_ef_sc_hd__decap_12
XFILLER_6_15 VGND VPWR VPWR VGND sky130_ef_sc_hd__decap_12
XFILLER_34_189 VGND VGND VPWR VPWR sky130_fd_sc_hd__decap_6
XFILLER_25_167 VGND VGND VPWR VPWR sky130_fd_sc_hd__fill_1
XFILLER_15_57 VGND VPWR VPWR VGND sky130_ef_sc_hd__decap_12
Xoutput12 _6_/X VGND VGND VPWR VPWR out sky130_fd_sc_hd__buf_2
XFILLER_31_137 VGND VPWR VPWR VGND sky130_ef_sc_hd__decap_12
XTAP_159 VGND VPWR sky130_fd_sc_hd__tapvpwrvgnd_1
XFILLER_16_189 VGND VGND VPWR VPWR sky130_fd_sc_hd__decap_6
XTAP_148 VGND VPWR sky130_fd_sc_hd__tapvpwrvgnd_1
XTAP_137 VGND VPWR sky130_fd_sc_hd__tapvpwrvgnd_1
XTAP_104 VGND VPWR sky130_fd_sc_hd__tapvpwrvgnd_1
XTAP_115 VGND VPWR sky130_fd_sc_hd__tapvpwrvgnd_1
XTAP_126 VGND VPWR sky130_fd_sc_hd__tapvpwrvgnd_1
XFILLER_21_181 VGND VPWR VPWR VGND sky130_ef_sc_hd__decap_12
XFILLER_13_137 VGND VPWR VPWR VGND sky130_ef_sc_hd__decap_12
XFILLER_3_27 VGND VPWR VPWR VGND sky130_ef_sc_hd__decap_12
XFILLER_8_141 VGND VPWR VPWR VGND sky130_ef_sc_hd__decap_12
XFILLER_37_55 VGND VGND VPWR VPWR sky130_fd_sc_hd__fill_1
XFILLER_5_111 VGND VGND VPWR VPWR sky130_fd_sc_hd__fill_1
XFILLER_32_221 VGND VPWR VPWR VGND sky130_ef_sc_hd__decap_12
XFILLER_23_57 VGND VPWR VPWR VGND sky130_ef_sc_hd__decap_12
XFILLER_14_221 VGND VPWR VPWR VGND sky130_ef_sc_hd__decap_12
XFILLER_9_15 VGND VPWR VPWR VGND sky130_ef_sc_hd__decap_12
XFILLER_7_217 VGND VGND VPWR VPWR sky130_fd_sc_hd__decap_6
XFILLER_1_93 VGND VPWR VPWR VGND sky130_ef_sc_hd__decap_12
XFILLER_28_165 VGND VPWR VPWR VGND sky130_ef_sc_hd__decap_12
XFILLER_28_121 VGND VPWR VPWR VGND sky130_ef_sc_hd__decap_12
XFILLER_4_209 VGND VPWR VPWR VGND sky130_ef_sc_hd__decap_12
XFILLER_19_121 VGND VGND VPWR VPWR sky130_fd_sc_hd__fill_2
XFILLER_6_27 VGND VGND VPWR VPWR sky130_fd_sc_hd__fill_1
XFILLER_31_57 VGND VPWR VPWR VGND sky130_ef_sc_hd__decap_12
XFILLER_25_113 VGND VPWR VPWR VGND sky130_ef_sc_hd__decap_12
XFILLER_15_69 VGND VPWR VPWR VGND sky130_ef_sc_hd__decap_12
XFILLER_31_149 VGND VPWR VPWR VGND sky130_ef_sc_hd__decap_12
XFILLER_31_105 VGND VGND VPWR VPWR sky130_fd_sc_hd__decap_6
XTAP_149 VGND VPWR sky130_fd_sc_hd__tapvpwrvgnd_1
XTAP_138 VGND VPWR sky130_fd_sc_hd__tapvpwrvgnd_1
XTAP_105 VGND VPWR sky130_fd_sc_hd__tapvpwrvgnd_1
XTAP_116 VGND VPWR sky130_fd_sc_hd__tapvpwrvgnd_1
XTAP_127 VGND VPWR sky130_fd_sc_hd__tapvpwrvgnd_1
XFILLER_7_81 VGND VPWR VPWR VGND sky130_ef_sc_hd__decap_12
XFILLER_21_193 VGND VPWR VPWR VGND sky130_ef_sc_hd__decap_12
XFILLER_13_149 VGND VPWR VPWR VGND sky130_ef_sc_hd__decap_12
XFILLER_13_105 VGND VGND VPWR VPWR sky130_fd_sc_hd__decap_6
XFILLER_3_39 VGND VPWR VPWR VGND sky130_ef_sc_hd__decap_12
XFILLER_8_153 VGND VPWR VPWR VGND sky130_ef_sc_hd__decap_12
XFILLER_8_197 VGND VPWR VPWR VGND sky130_ef_sc_hd__decap_12
XFILLER_12_15 VGND VPWR VPWR VGND sky130_ef_sc_hd__decap_12
XFILLER_32_233 VGND VGND VPWR VPWR sky130_fd_sc_hd__fill_2
XFILLER_5_167 VGND VGND VPWR VPWR sky130_fd_sc_hd__fill_1
XFILLER_23_233 VGND VGND VPWR VPWR sky130_fd_sc_hd__fill_2
XFILLER_23_69 VGND VPWR VPWR VGND sky130_ef_sc_hd__decap_12
XFILLER_14_233 VGND VGND VPWR VPWR sky130_fd_sc_hd__fill_2
XFILLER_0_29 VGND VPWR VPWR VGND sky130_ef_sc_hd__decap_12
XFILLER_0_18 VGND VGND VPWR VPWR sky130_fd_sc_hd__decap_8
XFILLER_9_27 VGND VPWR VPWR VGND sky130_ef_sc_hd__decap_12
XFILLER_1_181 VGND VPWR VPWR VGND sky130_ef_sc_hd__decap_12
XFILLER_1_3 VGND VPWR VPWR VGND sky130_ef_sc_hd__decap_12
XFILLER_11_225 VGND VGND VPWR VPWR sky130_fd_sc_hd__decap_8
XFILLER_37_111 VGND VGND VPWR VPWR sky130_fd_sc_hd__fill_1
XFILLER_34_3 VGND VPWR VPWR VGND sky130_ef_sc_hd__decap_12
XFILLER_29_57 VGND VPWR VPWR VGND sky130_ef_sc_hd__decap_12
XFILLER_28_177 VGND VPWR VPWR VGND sky130_ef_sc_hd__decap_12
XFILLER_28_133 VGND VGND VPWR VPWR sky130_fd_sc_hd__decap_6
XFILLER_20_15 VGND VPWR VPWR VGND sky130_ef_sc_hd__decap_12
XFILLER_19_144 VGND VPWR VPWR VGND sky130_ef_sc_hd__decap_12
XFILLER_19_111 VGND VGND VPWR VPWR sky130_fd_sc_hd__fill_1
XFILLER_25_169 VGND VPWR VPWR VGND sky130_ef_sc_hd__decap_12
XFILLER_25_125 VGND VPWR VPWR VGND sky130_ef_sc_hd__decap_12
XFILLER_15_15 VGND VPWR VPWR VGND sky130_ef_sc_hd__decap_12
XFILLER_31_69 VGND VPWR VPWR VGND sky130_ef_sc_hd__decap_12
XFILLER_22_139 VGND VGND VPWR VPWR sky130_fd_sc_hd__fill_1
XTAP_139 VGND VPWR sky130_fd_sc_hd__tapvpwrvgnd_1
XPHY_0 VGND VGND VPWR VPWR sky130_fd_sc_hd__decap_3
XTAP_106 VGND VPWR sky130_fd_sc_hd__tapvpwrvgnd_1
XFILLER_7_93 VGND VPWR VPWR VGND sky130_ef_sc_hd__decap_12
XTAP_117 VGND VPWR sky130_fd_sc_hd__tapvpwrvgnd_1
XTAP_128 VGND VPWR sky130_fd_sc_hd__tapvpwrvgnd_1
XFILLER_21_161 VGND VGND VPWR VPWR sky130_fd_sc_hd__decap_6
XFILLER_36_209 VGND VPWR VPWR VGND sky130_ef_sc_hd__decap_12
XFILLER_8_121 VGND VPWR VPWR VGND sky130_ef_sc_hd__decap_12
XFILLER_8_165 VGND VPWR VPWR VGND sky130_ef_sc_hd__decap_12
XFILLER_37_57 VGND VPWR VPWR VGND sky130_ef_sc_hd__decap_12
XFILLER_18_209 VGND VPWR VPWR VGND sky130_ef_sc_hd__decap_12
XFILLER_12_27 VGND VGND VPWR VPWR sky130_fd_sc_hd__fill_1
XFILLER_10_109 VGND VPWR VPWR VGND sky130_ef_sc_hd__decap_12
XFILLER_5_113 VGND VPWR VPWR VGND sky130_ef_sc_hd__decap_12
XFILLER_23_223 VGND VGND VPWR VPWR sky130_fd_sc_hd__fill_1
XFILLER_23_15 VGND VPWR VPWR VGND sky130_ef_sc_hd__decap_12
XFILLER_4_83 VGND VGND VPWR VPWR sky130_fd_sc_hd__fill_1
XFILLER_13_81 VGND VPWR VPWR VGND sky130_ef_sc_hd__decap_12
XFILLER_9_39 VGND VPWR VPWR VGND sky130_ef_sc_hd__decap_12
XFILLER_1_193 VGND VPWR VPWR VGND sky130_ef_sc_hd__decap_12
XFILLER_18_15 VGND VPWR VPWR VGND sky130_ef_sc_hd__decap_12
XFILLER_37_167 VGND VGND VPWR VPWR sky130_fd_sc_hd__fill_1
XFILLER_29_69 VGND VPWR VPWR VGND sky130_ef_sc_hd__decap_12
XFILLER_20_27 VGND VGND VPWR VPWR sky130_fd_sc_hd__fill_1
XFILLER_1_51 VGND VGND VPWR VPWR sky130_fd_sc_hd__decap_4
XFILLER_28_189 VGND VGND VPWR VPWR sky130_fd_sc_hd__decap_6
XFILLER_19_156 VGND VPWR VPWR VGND sky130_ef_sc_hd__decap_12
XFILLER_3_233 VGND VGND VPWR VPWR sky130_fd_sc_hd__fill_2
XFILLER_6_29 VGND VPWR VPWR VGND sky130_ef_sc_hd__decap_12
XFILLER_33_181 VGND VPWR VPWR VGND sky130_ef_sc_hd__decap_12
XFILLER_25_137 VGND VPWR VPWR VGND sky130_ef_sc_hd__decap_12
XFILLER_15_27 VGND VPWR VPWR VGND sky130_ef_sc_hd__decap_12
XFILLER_31_15 VGND VPWR VPWR VGND sky130_ef_sc_hd__decap_12
XFILLER_0_225 VGND VGND VPWR VPWR sky130_fd_sc_hd__decap_3
XFILLER_30_195 VGND VGND VPWR VPWR sky130_fd_sc_hd__fill_1
XFILLER_21_81 VGND VPWR VPWR VGND sky130_ef_sc_hd__decap_12
XFILLER_15_181 VGND VPWR VPWR VGND sky130_ef_sc_hd__decap_12
XPHY_1 VGND VGND VPWR VPWR sky130_fd_sc_hd__decap_3
XTAP_107 VGND VPWR sky130_fd_sc_hd__tapvpwrvgnd_1
XTAP_118 VGND VPWR sky130_fd_sc_hd__tapvpwrvgnd_1
XFILLER_11_6 VGND VPWR VPWR VGND sky130_ef_sc_hd__decap_12
XTAP_129 VGND VPWR sky130_fd_sc_hd__tapvpwrvgnd_1
XFILLER_26_15 VGND VPWR VPWR VGND sky130_ef_sc_hd__decap_12
XFILLER_12_195 VGND VGND VPWR VPWR sky130_fd_sc_hd__fill_1
XFILLER_8_133 VGND VGND VPWR VPWR sky130_fd_sc_hd__decap_6
XFILLER_8_177 VGND VPWR VPWR VGND sky130_ef_sc_hd__decap_12
XFILLER_37_69 VGND VPWR VPWR VGND sky130_ef_sc_hd__decap_12
XFILLER_26_221 VGND VPWR VPWR VGND sky130_ef_sc_hd__decap_12
XFILLER_5_125 VGND VPWR VPWR VGND sky130_ef_sc_hd__decap_12
XFILLER_5_169 VGND VPWR VPWR VGND sky130_ef_sc_hd__decap_12
XFILLER_23_27 VGND VPWR VPWR VGND sky130_ef_sc_hd__decap_12
XFILLER_2_139 VGND VGND VPWR VPWR sky130_fd_sc_hd__fill_1
XFILLER_13_93 VGND VPWR VPWR VGND sky130_ef_sc_hd__decap_12
XFILLER_1_161 VGND VGND VPWR VPWR sky130_fd_sc_hd__decap_6
XFILLER_34_15 VGND VPWR VPWR VGND sky130_ef_sc_hd__decap_12
XFILLER_18_27 VGND VGND VPWR VPWR sky130_fd_sc_hd__fill_1
XFILLER_11_205 VGND VPWR VPWR VGND sky130_ef_sc_hd__decap_12
XFILLER_37_113 VGND VPWR VPWR VGND sky130_ef_sc_hd__decap_12
XFILLER_29_15 VGND VPWR VPWR VGND sky130_ef_sc_hd__decap_12
XFILLER_19_113 VGND VGND VPWR VPWR sky130_fd_sc_hd__decap_8
XFILLER_3_223 VGND VGND VPWR VPWR sky130_fd_sc_hd__fill_1
XFILLER_10_83 VGND VGND VPWR VPWR sky130_fd_sc_hd__fill_1
XFILLER_25_105 VGND VGND VPWR VPWR sky130_fd_sc_hd__decap_6
XFILLER_19_81 VGND VPWR VPWR VGND sky130_ef_sc_hd__decap_12
XFILLER_33_193 VGND VPWR VPWR VGND sky130_ef_sc_hd__decap_12
XFILLER_31_27 VGND VPWR VPWR VGND sky130_ef_sc_hd__decap_12
XFILLER_25_149 VGND VPWR VPWR VGND sky130_ef_sc_hd__decap_12
XFILLER_15_39 VGND VPWR VPWR VGND sky130_ef_sc_hd__decap_12
XFILLER_21_93 VGND VPWR VPWR VGND sky130_ef_sc_hd__decap_12
XFILLER_15_193 VGND VPWR VPWR VGND sky130_ef_sc_hd__decap_12
XPHY_2 VGND VGND VPWR VPWR sky130_fd_sc_hd__decap_3
XTAP_108 VGND VPWR sky130_fd_sc_hd__tapvpwrvgnd_1
XTAP_119 VGND VPWR sky130_fd_sc_hd__tapvpwrvgnd_1
XFILLER_30_141 VGND VPWR VPWR VGND sky130_ef_sc_hd__decap_12
XFILLER_26_27 VGND VGND VPWR VPWR sky130_fd_sc_hd__fill_1
XFILLER_7_51 VGND VGND VPWR VPWR sky130_fd_sc_hd__decap_4
XFILLER_12_141 VGND VPWR VPWR VGND sky130_ef_sc_hd__decap_12
XFILLER_8_189 VGND VGND VPWR VPWR sky130_fd_sc_hd__decap_6
XFILLER_35_233 VGND VGND VPWR VPWR sky130_fd_sc_hd__fill_2
XFILLER_12_29 VGND VPWR VPWR VGND sky130_ef_sc_hd__decap_12
XFILLER_37_15 VGND VPWR VPWR VGND sky130_ef_sc_hd__decap_12
XFILLER_26_233 VGND VGND VPWR VPWR sky130_fd_sc_hd__fill_2
XFILLER_5_137 VGND VPWR VPWR VGND sky130_ef_sc_hd__decap_12
XFILLER_27_81 VGND VPWR VPWR VGND sky130_ef_sc_hd__decap_12
XFILLER_17_233 VGND VGND VPWR VPWR sky130_fd_sc_hd__fill_2
XFILLER_4_41 VGND VPWR VPWR VGND sky130_ef_sc_hd__decap_12
XFILLER_4_85 VGND VPWR VPWR VGND sky130_ef_sc_hd__decap_12
XFILLER_23_225 VGND VGND VPWR VPWR sky130_fd_sc_hd__decap_8
XFILLER_23_39 VGND VPWR VPWR VGND sky130_ef_sc_hd__decap_12
XFILLER_34_27 VGND VGND VPWR VPWR sky130_fd_sc_hd__fill_1
XFILLER_11_217 VGND VGND VPWR VPWR sky130_fd_sc_hd__decap_6
XFILLER_37_169 VGND VPWR VPWR VGND sky130_ef_sc_hd__decap_12
XFILLER_37_125 VGND VPWR VPWR VGND sky130_ef_sc_hd__decap_12
XFILLER_20_29 VGND VPWR VPWR VGND sky130_ef_sc_hd__decap_12
XFILLER_6_221 VGND VPWR VPWR VGND sky130_ef_sc_hd__decap_12
XFILLER_29_27 VGND VPWR VPWR VGND sky130_ef_sc_hd__decap_12
XFILLER_35_81 VGND VPWR VPWR VGND sky130_ef_sc_hd__decap_12
XFILLER_34_139 VGND VGND VPWR VPWR sky130_fd_sc_hd__fill_1
XFILLER_32_3 VGND VPWR VPWR VGND sky130_ef_sc_hd__decap_12
XFILLER_19_169 VGND VPWR VPWR VGND sky130_ef_sc_hd__decap_12
XFILLER_19_93 VGND VPWR VPWR VGND sky130_ef_sc_hd__decap_12
XFILLER_33_161 VGND VGND VPWR VPWR sky130_fd_sc_hd__decap_6
XFILLER_31_39 VGND VPWR VPWR VGND sky130_ef_sc_hd__decap_12
XFILLER_39_209 VGND VPWR VPWR VGND sky130_ef_sc_hd__decap_12
XFILLER_16_139 VGND VGND VPWR VPWR sky130_fd_sc_hd__fill_1
XTAP_109 VGND VPWR sky130_fd_sc_hd__tapvpwrvgnd_1
XFILLER_30_197 VGND VPWR VPWR VGND sky130_ef_sc_hd__decap_12
XFILLER_30_153 VGND VPWR VPWR VGND sky130_ef_sc_hd__decap_12
XFILLER_22_109 VGND VPWR VPWR VGND sky130_ef_sc_hd__decap_12
XFILLER_15_161 VGND VGND VPWR VPWR sky130_fd_sc_hd__decap_6
XPHY_3 VGND VGND VPWR VPWR sky130_fd_sc_hd__decap_3
XFILLER_29_231 VGND VGND VPWR VPWR sky130_fd_sc_hd__decap_4
XFILLER_16_83 VGND VGND VPWR VPWR sky130_fd_sc_hd__fill_1
XFILLER_12_153 VGND VPWR VPWR VGND sky130_ef_sc_hd__decap_12
XFILLER_35_223 VGND VGND VPWR VPWR sky130_fd_sc_hd__fill_1
XFILLER_12_197 VGND VPWR VPWR VGND sky130_ef_sc_hd__decap_12
XFILLER_37_27 VGND VPWR VPWR VGND sky130_ef_sc_hd__decap_12
XFILLER_5_105 VGND VGND VPWR VPWR sky130_fd_sc_hd__decap_6
XFILLER_5_149 VGND VPWR VPWR VGND sky130_ef_sc_hd__decap_12
XFILLER_27_93 VGND VPWR VPWR VGND sky130_ef_sc_hd__decap_12
XFILLER_17_223 VGND VGND VPWR VPWR sky130_fd_sc_hd__fill_1
XFILLER_4_53 VGND VPWR VPWR VGND sky130_ef_sc_hd__decap_12
XFILLER_4_97 VGND VPWR VPWR VGND sky130_ef_sc_hd__decap_12
XFILLER_13_51 VGND VGND VPWR VPWR sky130_fd_sc_hd__decap_4
XFILLER_18_29 VGND VPWR VPWR VGND sky130_ef_sc_hd__decap_12
XFILLER_37_137 VGND VPWR VPWR VGND sky130_ef_sc_hd__decap_12
XFILLER_27_6 VGND VPWR VPWR VGND sky130_ef_sc_hd__decap_12
XFILLER_24_83 VGND VGND VPWR VPWR sky130_fd_sc_hd__fill_1
XFILLER_6_233 VGND VGND VPWR VPWR sky130_fd_sc_hd__fill_2
XFILLER_29_39 VGND VPWR VPWR VGND sky130_ef_sc_hd__decap_12
XFILLER_35_93 VGND VPWR VPWR VGND sky130_ef_sc_hd__decap_12
XFILLER_27_181 VGND VPWR VPWR VGND sky130_ef_sc_hd__decap_12
XFILLER_3_225 VGND VGND VPWR VPWR sky130_fd_sc_hd__decap_8
XFILLER_10_41 VGND VPWR VPWR VGND sky130_ef_sc_hd__decap_12
XFILLER_10_85 VGND VPWR VPWR VGND sky130_ef_sc_hd__decap_12
XFILLER_25_3 VGND VPWR VPWR VGND sky130_ef_sc_hd__decap_12
XFILLER_24_195 VGND VGND VPWR VPWR sky130_fd_sc_hd__fill_1
XFILLER_21_51 VGND VGND VPWR VPWR sky130_fd_sc_hd__decap_4
XFILLER_38_221 VGND VPWR VPWR VGND sky130_ef_sc_hd__decap_12
XFILLER_30_165 VGND VPWR VPWR VGND sky130_ef_sc_hd__decap_12
XFILLER_30_121 VGND VPWR VPWR VGND sky130_ef_sc_hd__decap_12
XPHY_4 VGND VGND VPWR VPWR sky130_fd_sc_hd__decap_3
XFILLER_26_29 VGND VPWR VPWR VGND sky130_ef_sc_hd__decap_12
XFILLER_32_83 VGND VGND VPWR VPWR sky130_fd_sc_hd__fill_1
XFILLER_12_165 VGND VPWR VPWR VGND sky130_ef_sc_hd__decap_12
XFILLER_12_121 VGND VPWR VPWR VGND sky130_ef_sc_hd__decap_12
XFILLER_37_39 VGND VPWR VPWR VGND sky130_ef_sc_hd__decap_12
XFILLER_23_205 VGND VPWR VPWR VGND sky130_ef_sc_hd__decap_12
XFILLER_2_109 VGND VPWR VPWR VGND sky130_ef_sc_hd__decap_12
XFILLER_4_65 VGND VPWR VPWR VGND sky130_ef_sc_hd__decap_12
XFILLER_34_29 VGND VPWR VPWR VGND sky130_ef_sc_hd__decap_12
XFILLER_37_149 VGND VPWR VPWR VGND sky130_ef_sc_hd__decap_12
XFILLER_37_105 VGND VGND VPWR VPWR sky130_fd_sc_hd__decap_6
XFILLER_1_55 VGND VGND VPWR VPWR sky130_fd_sc_hd__fill_1
XFILLER_27_193 VGND VPWR VPWR VGND sky130_ef_sc_hd__decap_12
XFILLER_19_105 VGND VGND VPWR VPWR sky130_fd_sc_hd__decap_6
XFILLER_19_51 VGND VGND VPWR VPWR sky130_fd_sc_hd__decap_4
XFILLER_10_53 VGND VPWR VPWR VGND sky130_ef_sc_hd__decap_12
XFILLER_10_97 VGND VPWR VPWR VGND sky130_ef_sc_hd__decap_12
XFILLER_18_3 VGND VPWR VPWR VGND sky130_ef_sc_hd__decap_12
XFILLER_24_141 VGND VPWR VPWR VGND sky130_ef_sc_hd__decap_12
XFILLER_30_177 VGND VPWR VPWR VGND sky130_ef_sc_hd__decap_12
XFILLER_30_133 VGND VGND VPWR VPWR sky130_fd_sc_hd__decap_6
XPHY_5 VGND VGND VPWR VPWR sky130_fd_sc_hd__decap_3
XFILLER_38_233 VGND VGND VPWR VPWR sky130_fd_sc_hd__fill_2
XFILLER_21_111 VGND VGND VPWR VPWR sky130_fd_sc_hd__fill_1
XFILLER_16_85 VGND VPWR VPWR VGND sky130_ef_sc_hd__decap_12
XFILLER_16_41 VGND VPWR VPWR VGND sky130_ef_sc_hd__decap_12
XFILLER_12_177 VGND VPWR VPWR VGND sky130_ef_sc_hd__decap_12
XFILLER_12_133 VGND VGND VPWR VPWR sky130_fd_sc_hd__decap_6
XFILLER_35_225 VGND VGND VPWR VPWR sky130_fd_sc_hd__decap_8
XFILLER_7_181 VGND VPWR VPWR VGND sky130_ef_sc_hd__decap_12
XFILLER_17_225 VGND VGND VPWR VPWR sky130_fd_sc_hd__decap_8
XFILLER_23_217 VGND VGND VPWR VPWR sky130_fd_sc_hd__decap_6
XFILLER_4_77 VGND VGND VPWR VPWR sky130_fd_sc_hd__decap_6
XFILLER_4_195 VGND VGND VPWR VPWR sky130_fd_sc_hd__fill_1
XFILLER_38_83 VGND VGND VPWR VPWR sky130_fd_sc_hd__fill_1
XFILLER_20_209 VGND VPWR VPWR VGND sky130_ef_sc_hd__decap_12
XFILLER_24_85 VGND VPWR VPWR VGND sky130_ef_sc_hd__decap_12
XFILLER_24_41 VGND VPWR VPWR VGND sky130_ef_sc_hd__decap_12
XFILLER_28_139 VGND VGND VPWR VPWR sky130_fd_sc_hd__fill_1
XFILLER_35_51 VGND VGND VPWR VPWR sky130_fd_sc_hd__decap_4
XFILLER_34_109 VGND VPWR VPWR VGND sky130_ef_sc_hd__decap_12
XFILLER_27_161 VGND VGND VPWR VPWR sky130_fd_sc_hd__decap_6
XFILLER_3_205 VGND VPWR VPWR VGND sky130_ef_sc_hd__decap_12
XFILLER_10_65 VGND VPWR VPWR VGND sky130_ef_sc_hd__decap_12
XFILLER_24_197 VGND VPWR VPWR VGND sky130_ef_sc_hd__decap_12
XFILLER_24_153 VGND VPWR VPWR VGND sky130_ef_sc_hd__decap_12
XFILLER_16_109 VGND VPWR VPWR VGND sky130_ef_sc_hd__decap_12
XFILLER_30_189 VGND VGND VPWR VPWR sky130_fd_sc_hd__decap_6
XPHY_6 VGND VGND VPWR VPWR sky130_fd_sc_hd__decap_3
XFILLER_7_55 VGND VGND VPWR VPWR sky130_fd_sc_hd__fill_1
XFILLER_30_3 VGND VPWR VPWR VGND sky130_ef_sc_hd__decap_12
XFILLER_21_167 VGND VGND VPWR VPWR sky130_fd_sc_hd__fill_1
XFILLER_32_85 VGND VPWR VPWR VGND sky130_ef_sc_hd__decap_12
XFILLER_32_41 VGND VPWR VPWR VGND sky130_ef_sc_hd__decap_12
XFILLER_29_223 VGND VGND VPWR VPWR sky130_fd_sc_hd__fill_1
XFILLER_16_97 VGND VPWR VPWR VGND sky130_ef_sc_hd__decap_12
XFILLER_16_53 VGND VPWR VPWR VGND sky130_ef_sc_hd__decap_12
XFILLER_12_189 VGND VGND VPWR VPWR sky130_fd_sc_hd__decap_6
XFILLER_7_193 VGND VPWR VPWR VGND sky130_ef_sc_hd__decap_12
XFILLER_27_30 VGND VPWR VPWR VGND sky130_ef_sc_hd__decap_12
XFILLER_4_141 VGND VPWR VPWR VGND sky130_ef_sc_hd__decap_12
XTAP_240 VGND VPWR sky130_fd_sc_hd__tapvpwrvgnd_1
XFILLER_1_111 VGND VGND VPWR VPWR sky130_fd_sc_hd__fill_1
XFILLER_8_3 VGND VPWR VPWR VGND sky130_ef_sc_hd__decap_12
XFILLER_9_233 VGND VGND VPWR VPWR sky130_fd_sc_hd__fill_2
XFILLER_24_97 VGND VPWR VPWR VGND sky130_ef_sc_hd__decap_12
XFILLER_24_53 VGND VPWR VPWR VGND sky130_ef_sc_hd__decap_12
XFILLER_10_221 VGND VPWR VPWR VGND sky130_ef_sc_hd__decap_12
XFILLER_1_57 VGND VPWR VPWR VGND sky130_ef_sc_hd__decap_12
XFILLER_36_195 VGND VGND VPWR VPWR sky130_fd_sc_hd__fill_1
XTAP_90 VGND VPWR sky130_fd_sc_hd__tapvpwrvgnd_1
XFILLER_3_217 VGND VGND VPWR VPWR sky130_fd_sc_hd__decap_6
XFILLER_10_77 VGND VGND VPWR VPWR sky130_fd_sc_hd__decap_6
Xinput1 in[0] VGND VGND VPWR VPWR _3_/A0 sky130_fd_sc_hd__clkbuf_1
XFILLER_24_121 VGND VPWR VPWR VGND sky130_ef_sc_hd__decap_12
XFILLER_18_195 VGND VGND VPWR VPWR sky130_fd_sc_hd__fill_1
XFILLER_0_209 VGND VPWR VPWR VGND sky130_ef_sc_hd__decap_12
XFILLER_24_165 VGND VPWR VPWR VGND sky130_ef_sc_hd__decap_12
XPHY_7 VGND VGND VPWR VPWR sky130_fd_sc_hd__decap_3
XFILLER_23_3 VGND VPWR VPWR VGND sky130_ef_sc_hd__decap_12
XFILLER_21_113 VGND VPWR VPWR VGND sky130_ef_sc_hd__decap_12
XFILLER_32_97 VGND VPWR VPWR VGND sky130_ef_sc_hd__decap_12
XFILLER_32_53 VGND VPWR VPWR VGND sky130_ef_sc_hd__decap_12
XFILLER_16_65 VGND VPWR VPWR VGND sky130_ef_sc_hd__decap_12
XFILLER_8_139 VGND VGND VPWR VPWR sky130_fd_sc_hd__fill_1
XFILLER_35_205 VGND VPWR VPWR VGND sky130_ef_sc_hd__decap_12
XFILLER_7_161 VGND VGND VPWR VPWR sky130_fd_sc_hd__decap_6
XFILLER_27_42 VGND VPWR VPWR VGND sky130_ef_sc_hd__decap_12
XFILLER_17_205 VGND VPWR VPWR VGND sky130_ef_sc_hd__decap_12
XFILLER_4_153 VGND VPWR VPWR VGND sky130_ef_sc_hd__decap_12
XFILLER_4_197 VGND VPWR VPWR VGND sky130_ef_sc_hd__decap_12
XTAP_241 VGND VPWR sky130_fd_sc_hd__tapvpwrvgnd_1
XTAP_230 VGND VPWR sky130_fd_sc_hd__tapvpwrvgnd_1
XFILLER_38_85 VGND VPWR VPWR VGND sky130_ef_sc_hd__decap_12
XFILLER_38_41 VGND VPWR VPWR VGND sky130_ef_sc_hd__decap_12
XFILLER_13_55 VGND VGND VPWR VPWR sky130_fd_sc_hd__fill_1
XFILLER_1_167 VGND VGND VPWR VPWR sky130_fd_sc_hd__fill_1
XFILLER_9_223 VGND VGND VPWR VPWR sky130_fd_sc_hd__fill_1
XFILLER_24_65 VGND VPWR VPWR VGND sky130_ef_sc_hd__decap_12
XFILLER_10_233 VGND VGND VPWR VPWR sky130_fd_sc_hd__fill_2
XFILLER_1_69 VGND VPWR VPWR VGND sky130_ef_sc_hd__decap_12
Xinput2 in[1] VGND VGND VPWR VPWR _3_/A1 sky130_fd_sc_hd__clkbuf_1
XFILLER_36_141 VGND VPWR VPWR VGND sky130_ef_sc_hd__decap_12
XTAP_91 VGND VPWR sky130_fd_sc_hd__tapvpwrvgnd_1
XTAP_80 VGND VPWR sky130_fd_sc_hd__tapvpwrvgnd_1
XFILLER_33_111 VGND VGND VPWR VPWR sky130_fd_sc_hd__fill_1
XFILLER_18_141 VGND VPWR VPWR VGND sky130_ef_sc_hd__decap_12
XFILLER_24_177 VGND VPWR VPWR VGND sky130_ef_sc_hd__decap_12
XFILLER_24_133 VGND VGND VPWR VPWR sky130_fd_sc_hd__decap_6
XFILLER_21_55 VGND VGND VPWR VPWR sky130_fd_sc_hd__fill_1
XFILLER_16_3 VGND VPWR VPWR VGND sky130_ef_sc_hd__decap_12
XFILLER_15_111 VGND VGND VPWR VPWR sky130_fd_sc_hd__fill_1
XPHY_8 VGND VGND VPWR VPWR sky130_fd_sc_hd__decap_3
XFILLER_7_57 VGND VPWR VPWR VGND sky130_ef_sc_hd__decap_12
XFILLER_29_225 VGND VGND VPWR VPWR sky130_fd_sc_hd__decap_3
XFILLER_21_169 VGND VPWR VPWR VGND sky130_ef_sc_hd__decap_12
XFILLER_21_125 VGND VPWR VPWR VGND sky130_ef_sc_hd__decap_12
XFILLER_16_77 VGND VGND VPWR VPWR sky130_fd_sc_hd__decap_6
XFILLER_35_217 VGND VGND VPWR VPWR sky130_fd_sc_hd__decap_6
XFILLER_32_65 VGND VPWR VPWR VGND sky130_ef_sc_hd__decap_12
XFILLER_32_209 VGND VPWR VPWR VGND sky130_ef_sc_hd__decap_12
XFILLER_27_54 VGND VGND VPWR VPWR sky130_fd_sc_hd__fill_2
XFILLER_17_217 VGND VGND VPWR VPWR sky130_fd_sc_hd__decap_6
XFILLER_4_121 VGND VPWR VPWR VGND sky130_ef_sc_hd__decap_12
XFILLER_4_165 VGND VPWR VPWR VGND sky130_ef_sc_hd__decap_12
XTAP_242 VGND VPWR sky130_fd_sc_hd__tapvpwrvgnd_1
XTAP_231 VGND VPWR sky130_fd_sc_hd__tapvpwrvgnd_1
XTAP_220 VGND VPWR sky130_fd_sc_hd__tapvpwrvgnd_1
XFILLER_38_97 VGND VPWR VPWR VGND sky130_ef_sc_hd__decap_12
XFILLER_38_53 VGND VPWR VPWR VGND sky130_ef_sc_hd__decap_12
XFILLER_14_209 VGND VPWR VPWR VGND sky130_ef_sc_hd__decap_12
XFILLER_1_113 VGND VPWR VPWR VGND sky130_ef_sc_hd__decap_12
XFILLER_39_172 VGND VPWR VPWR VGND sky130_ef_sc_hd__decap_12
XFILLER_24_77 VGND VGND VPWR VPWR sky130_fd_sc_hd__decap_6
XFILLER_1_15 VGND VPWR VPWR VGND sky130_ef_sc_hd__decap_12
XFILLER_36_197 VGND VPWR VPWR VGND sky130_ef_sc_hd__decap_12
XFILLER_36_153 VGND VPWR VPWR VGND sky130_ef_sc_hd__decap_12
XFILLER_28_109 VGND VPWR VPWR VGND sky130_ef_sc_hd__decap_12