*SPEF "ieee 1481-1999"
*DESIGN "or_gate"
*DATE "11:11:11 Fri 11 11, 1111"
*VENDOR "OpenRCX"
*PROGRAM "Parallel Extraction"
*VERSION "1.0"
*DESIGN_FLOW "NAME_SCOPE LOCAL" "PIN_CAP NONE"
*DIVIDER /
*DELIMITER :
*BUS_DELIMITER []
*T_UNIT 1 NS
*C_UNIT 1 PF
*R_UNIT 1 OHM
*L_UNIT 1 HENRY

*NAME_MAP
*3 in1
*4 in2
*5 out
*6 _0_
*7 net1
*8 net2
*9 net3
*10 FILLER_0_18
*11 FILLER_0_26
*12 FILLER_0_29
*13 FILLER_0_41
*14 FILLER_0_53
*15 FILLER_0_57
*16 FILLER_0_6
*17 FILLER_0_69
*18 FILLER_0_81
*19 FILLER_0_85
*20 FILLER_0_93
*21 FILLER_10_15
*22 FILLER_10_27
*23 FILLER_10_29
*24 FILLER_10_3
*25 FILLER_10_41
*26 FILLER_10_53
*27 FILLER_10_65
*28 FILLER_10_77
*29 FILLER_10_83
*30 FILLER_10_85
*31 FILLER_10_93
*32 FILLER_11_15
*33 FILLER_11_27
*34 FILLER_11_3
*35 FILLER_11_39
*36 FILLER_11_51
*37 FILLER_11_55
*38 FILLER_11_57
*39 FILLER_11_69
*40 FILLER_11_81
*41 FILLER_11_93
*42 FILLER_12_15
*43 FILLER_12_27
*44 FILLER_12_29
*45 FILLER_12_3
*46 FILLER_12_41
*47 FILLER_12_53
*48 FILLER_12_65
*49 FILLER_12_77
*50 FILLER_12_83
*51 FILLER_12_85
*52 FILLER_12_93
*53 FILLER_13_15
*54 FILLER_13_27
*55 FILLER_13_3
*56 FILLER_13_39
*57 FILLER_13_51
*58 FILLER_13_55
*59 FILLER_13_57
*60 FILLER_13_69
*61 FILLER_13_81
*62 FILLER_13_93
*63 FILLER_14_15
*64 FILLER_14_27
*65 FILLER_14_29
*66 FILLER_14_3
*67 FILLER_14_41
*68 FILLER_14_53
*69 FILLER_14_65
*70 FILLER_14_77
*71 FILLER_14_83
*72 FILLER_14_85
*73 FILLER_14_93
*74 FILLER_15_15
*75 FILLER_15_27
*76 FILLER_15_3
*77 FILLER_15_32
*78 FILLER_15_44
*79 FILLER_15_57
*80 FILLER_15_69
*81 FILLER_15_81
*82 FILLER_15_85
*83 FILLER_15_93
*84 FILLER_1_15
*85 FILLER_1_27
*86 FILLER_1_3
*87 FILLER_1_39
*88 FILLER_1_51
*89 FILLER_1_55
*90 FILLER_1_57
*91 FILLER_1_69
*92 FILLER_1_81
*93 FILLER_1_93
*94 FILLER_2_15
*95 FILLER_2_27
*96 FILLER_2_29
*97 FILLER_2_3
*98 FILLER_2_41
*99 FILLER_2_53
*100 FILLER_2_65
*101 FILLER_2_77
*102 FILLER_2_83
*103 FILLER_2_85
*104 FILLER_2_93
*105 FILLER_3_15
*106 FILLER_3_27
*107 FILLER_3_3
*108 FILLER_3_39
*109 FILLER_3_51
*110 FILLER_3_55
*111 FILLER_3_57
*112 FILLER_3_69
*113 FILLER_3_81
*114 FILLER_3_93
*115 FILLER_4_15
*116 FILLER_4_27
*117 FILLER_4_3
*118 FILLER_4_34
*119 FILLER_4_41
*120 FILLER_4_53
*121 FILLER_4_65
*122 FILLER_4_77
*123 FILLER_4_83
*124 FILLER_4_85
*125 FILLER_4_93
*126 FILLER_5_15
*127 FILLER_5_27
*128 FILLER_5_3
*129 FILLER_5_39
*130 FILLER_5_51
*131 FILLER_5_55
*132 FILLER_5_57
*133 FILLER_5_69
*134 FILLER_5_81
*135 FILLER_5_85
*136 FILLER_5_90
*137 FILLER_6_15
*138 FILLER_6_27
*139 FILLER_6_29
*140 FILLER_6_3
*141 FILLER_6_41
*142 FILLER_6_53
*143 FILLER_6_65
*144 FILLER_6_77
*145 FILLER_6_83
*146 FILLER_6_85
*147 FILLER_6_93
*148 FILLER_7_15
*149 FILLER_7_27
*150 FILLER_7_3
*151 FILLER_7_39
*152 FILLER_7_51
*153 FILLER_7_55
*154 FILLER_7_57
*155 FILLER_7_69
*156 FILLER_7_81
*157 FILLER_7_93
*158 FILLER_8_15
*159 FILLER_8_27
*160 FILLER_8_29
*161 FILLER_8_3
*162 FILLER_8_41
*163 FILLER_8_53
*164 FILLER_8_65
*165 FILLER_8_77
*166 FILLER_8_83
*167 FILLER_8_85
*168 FILLER_8_93
*169 FILLER_9_15
*170 FILLER_9_27
*171 FILLER_9_3
*172 FILLER_9_39
*173 FILLER_9_51
*174 FILLER_9_55
*175 FILLER_9_57
*176 FILLER_9_69
*177 FILLER_9_81
*178 FILLER_9_93
*179 PHY_0
*180 PHY_1
*181 PHY_10
*182 PHY_11
*183 PHY_12
*184 PHY_13
*185 PHY_14
*186 PHY_15
*187 PHY_16
*188 PHY_17
*189 PHY_18
*190 PHY_19
*191 PHY_2
*192 PHY_20
*193 PHY_21
*194 PHY_22
*195 PHY_23
*196 PHY_24
*197 PHY_25
*198 PHY_26
*199 PHY_27
*200 PHY_28
*201 PHY_29
*202 PHY_3
*203 PHY_30
*204 PHY_31
*205 PHY_4
*206 PHY_5
*207 PHY_6
*208 PHY_7
*209 PHY_8
*210 PHY_9
*211 TAP_32
*212 TAP_33
*213 TAP_34
*214 TAP_35
*215 TAP_36
*216 TAP_37
*217 TAP_38
*218 TAP_39
*219 TAP_40
*220 TAP_41
*221 TAP_42
*222 TAP_43
*223 TAP_44
*224 TAP_45
*225 TAP_46
*226 TAP_47
*227 TAP_48
*228 TAP_49
*229 TAP_50
*230 TAP_51
*231 TAP_52
*232 TAP_53
*233 TAP_54
*234 TAP_55
*235 TAP_56
*236 TAP_57
*237 TAP_58
*238 _1_
*239 _2_
*240 input1
*241 input2
*242 output3

*PORTS
in1 I
in2 I
out O

*D_NET *3 0.00126304
*CONN
*P in1 I
*I *240:A I *D sky130_fd_sc_hd__clkbuf_1
*CAP
1 in1 0.000631522
2 *240:A 0.000631522
*RES
1 in1 *240:A 15.18 
*END

*D_NET *4 0.00108683
*CONN
*P in2 I
*I *241:A I *D sky130_fd_sc_hd__clkbuf_1
*CAP
1 in2 0.000543417
2 *241:A 0.000543417
*RES
1 in2 *241:A 14.535 
*END

*D_NET *5 0.000588079
*CONN
*P out O
*I *242:X O *D sky130_fd_sc_hd__buf_2
*CAP
1 out 0.000294039
2 *242:X 0.000294039
*RES
1 *242:X out 5.58983 
*END

*D_NET *6 0.000208773
*CONN
*I *239:A I *D sky130_fd_sc_hd__clkbuf_1
*I *238:X O *D sky130_fd_sc_hd__or2_1
*CAP
1 *239:A 0.000104386
2 *238:X 0.000104386
*RES
1 *238:X *239:A 5.03 
*END

*D_NET *7 0.0017159
*CONN
*I *238:B I *D sky130_fd_sc_hd__or2_1
*I *240:X O *D sky130_fd_sc_hd__clkbuf_1
*CAP
1 *238:B 0.000857952
2 *240:X 0.000857952
*RES
1 *240:X *238:B 22.83 
*END

*D_NET *8 0.0023094
*CONN
*I *238:A I *D sky130_fd_sc_hd__or2_1
*I *241:X O *D sky130_fd_sc_hd__clkbuf_1
*CAP
1 *238:A 0.0011547
2 *241:X 0.0011547
*RES
1 *241:X *238:A 29.235 
*END

*D_NET *9 0.00199375
*CONN
*I *242:A I *D sky130_fd_sc_hd__buf_2
*I *239:X O *D sky130_fd_sc_hd__clkbuf_1
*CAP
1 *242:A 0.000996875
2 *239:X 0.000996875
*RES
1 *239:X *242:A 24.81 
*END
