*SPEF "ieee 1481-1999"
*DESIGN "demultiplexer"
*DATE "11:11:11 Fri 11 11, 1111"
*VENDOR "OpenRCX"
*PROGRAM "Parallel Extraction"
*VERSION "1.0"
*DESIGN_FLOW "NAME_SCOPE LOCAL" "PIN_CAP NONE"
*DIVIDER /
*DELIMITER :
*BUS_DELIMITER []
*T_UNIT 1 NS
*C_UNIT 1 PF
*R_UNIT 1 OHM
*L_UNIT 1 HENRY

*NAME_MAP
*3 in
*4 out[0]
*5 out[1]
*6 out[2]
*7 out[3]
*8 out[4]
*9 out[5]
*10 out[6]
*11 out[7]
*12 sel[0]
*13 sel[1]
*14 sel[2]
*15 _00_
*16 _01_
*17 _02_
*18 _03_
*19 _04_
*20 _05_
*21 _06_
*22 _07_
*23 _08_
*24 _09_
*25 _10_
*26 net1
*27 net10
*28 net11
*29 net12
*30 net2
*31 net3
*32 net4
*33 net5
*34 net6
*35 net7
*36 net8
*37 net9
*38 FILLER_0_109
*39 FILLER_0_113
*40 FILLER_0_119
*41 FILLER_0_131
*42 FILLER_0_139
*43 FILLER_0_141
*44 FILLER_0_153
*45 FILLER_0_165
*46 FILLER_0_169
*47 FILLER_0_181
*48 FILLER_0_19
*49 FILLER_0_193
*50 FILLER_0_197
*51 FILLER_0_209
*52 FILLER_0_221
*53 FILLER_0_225
*54 FILLER_0_237
*55 FILLER_0_249
*56 FILLER_0_257
*57 FILLER_0_269
*58 FILLER_0_27
*59 FILLER_0_277
*60 FILLER_0_281
*61 FILLER_0_29
*62 FILLER_0_293
*63 FILLER_0_305
*64 FILLER_0_309
*65 FILLER_0_321
*66 FILLER_0_333
*67 FILLER_0_337
*68 FILLER_0_353
*69 FILLER_0_41
*70 FILLER_0_53
*71 FILLER_0_57
*72 FILLER_0_69
*73 FILLER_0_7
*74 FILLER_0_81
*75 FILLER_0_85
*76 FILLER_0_97
*77 FILLER_10_109
*78 FILLER_10_121
*79 FILLER_10_133
*80 FILLER_10_139
*81 FILLER_10_141
*82 FILLER_10_15
*83 FILLER_10_153
*84 FILLER_10_165
*85 FILLER_10_177
*86 FILLER_10_189
*87 FILLER_10_195
*88 FILLER_10_197
*89 FILLER_10_209
*90 FILLER_10_221
*91 FILLER_10_233
*92 FILLER_10_245
*93 FILLER_10_251
*94 FILLER_10_253
*95 FILLER_10_265
*96 FILLER_10_27
*97 FILLER_10_277
*98 FILLER_10_289
*99 FILLER_10_29
*100 FILLER_10_3
*101 FILLER_10_301
*102 FILLER_10_307
*103 FILLER_10_309
*104 FILLER_10_321
*105 FILLER_10_333
*106 FILLER_10_345
*107 FILLER_10_41
*108 FILLER_10_53
*109 FILLER_10_65
*110 FILLER_10_77
*111 FILLER_10_83
*112 FILLER_10_85
*113 FILLER_10_97
*114 FILLER_11_105
*115 FILLER_11_111
*116 FILLER_11_113
*117 FILLER_11_125
*118 FILLER_11_137
*119 FILLER_11_149
*120 FILLER_11_15
*121 FILLER_11_161
*122 FILLER_11_167
*123 FILLER_11_169
*124 FILLER_11_181
*125 FILLER_11_193
*126 FILLER_11_205
*127 FILLER_11_217
*128 FILLER_11_223
*129 FILLER_11_225
*130 FILLER_11_237
*131 FILLER_11_249
*132 FILLER_11_261
*133 FILLER_11_27
*134 FILLER_11_273
*135 FILLER_11_279
*136 FILLER_11_281
*137 FILLER_11_293
*138 FILLER_11_3
*139 FILLER_11_305
*140 FILLER_11_317
*141 FILLER_11_329
*142 FILLER_11_335
*143 FILLER_11_337
*144 FILLER_11_349
*145 FILLER_11_39
*146 FILLER_11_51
*147 FILLER_11_55
*148 FILLER_11_57
*149 FILLER_11_69
*150 FILLER_11_81
*151 FILLER_11_93
*152 FILLER_12_109
*153 FILLER_12_121
*154 FILLER_12_133
*155 FILLER_12_139
*156 FILLER_12_141
*157 FILLER_12_15
*158 FILLER_12_153
*159 FILLER_12_165
*160 FILLER_12_177
*161 FILLER_12_189
*162 FILLER_12_195
*163 FILLER_12_197
*164 FILLER_12_209
*165 FILLER_12_221
*166 FILLER_12_233
*167 FILLER_12_245
*168 FILLER_12_251
*169 FILLER_12_253
*170 FILLER_12_265
*171 FILLER_12_27
*172 FILLER_12_277
*173 FILLER_12_289
*174 FILLER_12_29
*175 FILLER_12_3
*176 FILLER_12_301
*177 FILLER_12_307
*178 FILLER_12_309
*179 FILLER_12_321
*180 FILLER_12_333
*181 FILLER_12_345
*182 FILLER_12_41
*183 FILLER_12_53
*184 FILLER_12_65
*185 FILLER_12_77
*186 FILLER_12_83
*187 FILLER_12_85
*188 FILLER_12_97
*189 FILLER_13_105
*190 FILLER_13_111
*191 FILLER_13_113
*192 FILLER_13_125
*193 FILLER_13_137
*194 FILLER_13_149
*195 FILLER_13_15
*196 FILLER_13_161
*197 FILLER_13_167
*198 FILLER_13_169
*199 FILLER_13_181
*200 FILLER_13_193
*201 FILLER_13_205
*202 FILLER_13_217
*203 FILLER_13_223
*204 FILLER_13_225
*205 FILLER_13_237
*206 FILLER_13_249
*207 FILLER_13_261
*208 FILLER_13_27
*209 FILLER_13_273
*210 FILLER_13_279
*211 FILLER_13_281
*212 FILLER_13_293
*213 FILLER_13_3
*214 FILLER_13_305
*215 FILLER_13_317
*216 FILLER_13_329
*217 FILLER_13_335
*218 FILLER_13_337
*219 FILLER_13_349
*220 FILLER_13_39
*221 FILLER_13_51
*222 FILLER_13_55
*223 FILLER_13_57
*224 FILLER_13_69
*225 FILLER_13_81
*226 FILLER_13_93
*227 FILLER_14_109
*228 FILLER_14_121
*229 FILLER_14_133
*230 FILLER_14_139
*231 FILLER_14_141
*232 FILLER_14_15
*233 FILLER_14_153
*234 FILLER_14_165
*235 FILLER_14_177
*236 FILLER_14_189
*237 FILLER_14_195
*238 FILLER_14_197
*239 FILLER_14_209
*240 FILLER_14_221
*241 FILLER_14_233
*242 FILLER_14_245
*243 FILLER_14_251
*244 FILLER_14_253
*245 FILLER_14_265
*246 FILLER_14_27
*247 FILLER_14_277
*248 FILLER_14_289
*249 FILLER_14_29
*250 FILLER_14_3
*251 FILLER_14_301
*252 FILLER_14_307
*253 FILLER_14_309
*254 FILLER_14_321
*255 FILLER_14_333
*256 FILLER_14_345
*257 FILLER_14_41
*258 FILLER_14_53
*259 FILLER_14_65
*260 FILLER_14_77
*261 FILLER_14_83
*262 FILLER_14_85
*263 FILLER_14_97
*264 FILLER_15_105
*265 FILLER_15_111
*266 FILLER_15_113
*267 FILLER_15_125
*268 FILLER_15_137
*269 FILLER_15_149
*270 FILLER_15_15
*271 FILLER_15_161
*272 FILLER_15_167
*273 FILLER_15_169
*274 FILLER_15_181
*275 FILLER_15_193
*276 FILLER_15_205
*277 FILLER_15_217
*278 FILLER_15_223
*279 FILLER_15_225
*280 FILLER_15_237
*281 FILLER_15_249
*282 FILLER_15_261
*283 FILLER_15_27
*284 FILLER_15_273
*285 FILLER_15_279
*286 FILLER_15_281
*287 FILLER_15_293
*288 FILLER_15_3
*289 FILLER_15_305
*290 FILLER_15_317
*291 FILLER_15_329
*292 FILLER_15_335
*293 FILLER_15_337
*294 FILLER_15_349
*295 FILLER_15_39
*296 FILLER_15_51
*297 FILLER_15_55
*298 FILLER_15_57
*299 FILLER_15_69
*300 FILLER_15_81
*301 FILLER_15_93
*302 FILLER_16_109
*303 FILLER_16_121
*304 FILLER_16_133
*305 FILLER_16_139
*306 FILLER_16_141
*307 FILLER_16_15
*308 FILLER_16_153
*309 FILLER_16_165
*310 FILLER_16_177
*311 FILLER_16_189
*312 FILLER_16_195
*313 FILLER_16_197
*314 FILLER_16_209
*315 FILLER_16_221
*316 FILLER_16_233
*317 FILLER_16_245
*318 FILLER_16_251
*319 FILLER_16_253
*320 FILLER_16_265
*321 FILLER_16_27
*322 FILLER_16_277
*323 FILLER_16_289
*324 FILLER_16_29
*325 FILLER_16_3
*326 FILLER_16_301
*327 FILLER_16_307
*328 FILLER_16_309
*329 FILLER_16_321
*330 FILLER_16_333
*331 FILLER_16_345
*332 FILLER_16_41
*333 FILLER_16_53
*334 FILLER_16_65
*335 FILLER_16_77
*336 FILLER_16_83
*337 FILLER_16_85
*338 FILLER_16_97
*339 FILLER_17_105
*340 FILLER_17_111
*341 FILLER_17_113
*342 FILLER_17_125
*343 FILLER_17_137
*344 FILLER_17_149
*345 FILLER_17_15
*346 FILLER_17_161
*347 FILLER_17_167
*348 FILLER_17_169
*349 FILLER_17_181
*350 FILLER_17_193
*351 FILLER_17_205
*352 FILLER_17_217
*353 FILLER_17_223
*354 FILLER_17_225
*355 FILLER_17_237
*356 FILLER_17_249
*357 FILLER_17_261
*358 FILLER_17_27
*359 FILLER_17_273
*360 FILLER_17_279
*361 FILLER_17_281
*362 FILLER_17_293
*363 FILLER_17_3
*364 FILLER_17_305
*365 FILLER_17_317
*366 FILLER_17_329
*367 FILLER_17_335
*368 FILLER_17_337
*369 FILLER_17_349
*370 FILLER_17_39
*371 FILLER_17_51
*372 FILLER_17_55
*373 FILLER_17_57
*374 FILLER_17_69
*375 FILLER_17_81
*376 FILLER_17_93
*377 FILLER_18_109
*378 FILLER_18_121
*379 FILLER_18_133
*380 FILLER_18_139
*381 FILLER_18_141
*382 FILLER_18_15
*383 FILLER_18_153
*384 FILLER_18_165
*385 FILLER_18_177
*386 FILLER_18_189
*387 FILLER_18_195
*388 FILLER_18_197
*389 FILLER_18_209
*390 FILLER_18_221
*391 FILLER_18_233
*392 FILLER_18_245
*393 FILLER_18_251
*394 FILLER_18_253
*395 FILLER_18_265
*396 FILLER_18_27
*397 FILLER_18_277
*398 FILLER_18_289
*399 FILLER_18_29
*400 FILLER_18_3
*401 FILLER_18_301
*402 FILLER_18_307
*403 FILLER_18_309
*404 FILLER_18_321
*405 FILLER_18_333
*406 FILLER_18_345
*407 FILLER_18_41
*408 FILLER_18_53
*409 FILLER_18_65
*410 FILLER_18_77
*411 FILLER_18_83
*412 FILLER_18_85
*413 FILLER_18_97
*414 FILLER_19_105
*415 FILLER_19_111
*416 FILLER_19_113
*417 FILLER_19_125
*418 FILLER_19_13
*419 FILLER_19_137
*420 FILLER_19_149
*421 FILLER_19_161
*422 FILLER_19_167
*423 FILLER_19_169
*424 FILLER_19_181
*425 FILLER_19_193
*426 FILLER_19_205
*427 FILLER_19_217
*428 FILLER_19_223
*429 FILLER_19_225
*430 FILLER_19_237
*431 FILLER_19_249
*432 FILLER_19_25
*433 FILLER_19_261
*434 FILLER_19_273
*435 FILLER_19_279
*436 FILLER_19_281
*437 FILLER_19_293
*438 FILLER_19_305
*439 FILLER_19_317
*440 FILLER_19_329
*441 FILLER_19_335
*442 FILLER_19_337
*443 FILLER_19_349
*444 FILLER_19_37
*445 FILLER_19_49
*446 FILLER_19_55
*447 FILLER_19_57
*448 FILLER_19_69
*449 FILLER_19_81
*450 FILLER_19_93
*451 FILLER_1_105
*452 FILLER_1_111
*453 FILLER_1_113
*454 FILLER_1_125
*455 FILLER_1_137
*456 FILLER_1_149
*457 FILLER_1_15
*458 FILLER_1_161
*459 FILLER_1_167
*460 FILLER_1_169
*461 FILLER_1_181
*462 FILLER_1_193
*463 FILLER_1_205
*464 FILLER_1_217
*465 FILLER_1_223
*466 FILLER_1_225
*467 FILLER_1_237
*468 FILLER_1_249
*469 FILLER_1_261
*470 FILLER_1_27
*471 FILLER_1_273
*472 FILLER_1_279
*473 FILLER_1_281
*474 FILLER_1_293
*475 FILLER_1_3
*476 FILLER_1_305
*477 FILLER_1_317
*478 FILLER_1_329
*479 FILLER_1_335
*480 FILLER_1_337
*481 FILLER_1_349
*482 FILLER_1_39
*483 FILLER_1_51
*484 FILLER_1_55
*485 FILLER_1_57
*486 FILLER_1_69
*487 FILLER_1_81
*488 FILLER_1_93
*489 FILLER_20_109
*490 FILLER_20_121
*491 FILLER_20_133
*492 FILLER_20_139
*493 FILLER_20_141
*494 FILLER_20_15
*495 FILLER_20_153
*496 FILLER_20_165
*497 FILLER_20_177
*498 FILLER_20_189
*499 FILLER_20_195
*500 FILLER_20_197
*501 FILLER_20_209
*502 FILLER_20_221
*503 FILLER_20_233
*504 FILLER_20_245
*505 FILLER_20_251
*506 FILLER_20_253
*507 FILLER_20_265
*508 FILLER_20_27
*509 FILLER_20_277
*510 FILLER_20_289
*511 FILLER_20_29
*512 FILLER_20_3
*513 FILLER_20_301
*514 FILLER_20_307
*515 FILLER_20_309
*516 FILLER_20_321
*517 FILLER_20_333
*518 FILLER_20_341
*519 FILLER_20_353
*520 FILLER_20_41
*521 FILLER_20_53
*522 FILLER_20_65
*523 FILLER_20_77
*524 FILLER_20_83
*525 FILLER_20_85
*526 FILLER_20_97
*527 FILLER_21_105
*528 FILLER_21_111
*529 FILLER_21_113
*530 FILLER_21_125
*531 FILLER_21_137
*532 FILLER_21_149
*533 FILLER_21_15
*534 FILLER_21_161
*535 FILLER_21_167
*536 FILLER_21_169
*537 FILLER_21_181
*538 FILLER_21_193
*539 FILLER_21_205
*540 FILLER_21_217
*541 FILLER_21_223
*542 FILLER_21_225
*543 FILLER_21_237
*544 FILLER_21_249
*545 FILLER_21_261
*546 FILLER_21_27
*547 FILLER_21_273
*548 FILLER_21_279
*549 FILLER_21_281
*550 FILLER_21_293
*551 FILLER_21_3
*552 FILLER_21_305
*553 FILLER_21_317
*554 FILLER_21_329
*555 FILLER_21_335
*556 FILLER_21_337
*557 FILLER_21_349
*558 FILLER_21_39
*559 FILLER_21_51
*560 FILLER_21_55
*561 FILLER_21_57
*562 FILLER_21_69
*563 FILLER_21_81
*564 FILLER_21_93
*565 FILLER_22_109
*566 FILLER_22_121
*567 FILLER_22_133
*568 FILLER_22_139
*569 FILLER_22_141
*570 FILLER_22_15
*571 FILLER_22_153
*572 FILLER_22_165
*573 FILLER_22_177
*574 FILLER_22_189
*575 FILLER_22_195
*576 FILLER_22_197
*577 FILLER_22_209
*578 FILLER_22_221
*579 FILLER_22_233
*580 FILLER_22_245
*581 FILLER_22_251
*582 FILLER_22_253
*583 FILLER_22_265
*584 FILLER_22_27
*585 FILLER_22_277
*586 FILLER_22_289
*587 FILLER_22_29
*588 FILLER_22_3
*589 FILLER_22_301
*590 FILLER_22_307
*591 FILLER_22_309
*592 FILLER_22_321
*593 FILLER_22_333
*594 FILLER_22_345
*595 FILLER_22_41
*596 FILLER_22_53
*597 FILLER_22_65
*598 FILLER_22_77
*599 FILLER_22_83
*600 FILLER_22_85
*601 FILLER_22_97
*602 FILLER_23_105
*603 FILLER_23_111
*604 FILLER_23_113
*605 FILLER_23_125
*606 FILLER_23_133
*607 FILLER_23_139
*608 FILLER_23_15
*609 FILLER_23_151
*610 FILLER_23_163
*611 FILLER_23_167
*612 FILLER_23_169
*613 FILLER_23_181
*614 FILLER_23_193
*615 FILLER_23_205
*616 FILLER_23_212
*617 FILLER_23_225
*618 FILLER_23_237
*619 FILLER_23_249
*620 FILLER_23_261
*621 FILLER_23_27
*622 FILLER_23_273
*623 FILLER_23_279
*624 FILLER_23_281
*625 FILLER_23_293
*626 FILLER_23_3
*627 FILLER_23_305
*628 FILLER_23_317
*629 FILLER_23_329
*630 FILLER_23_335
*631 FILLER_23_337
*632 FILLER_23_349
*633 FILLER_23_39
*634 FILLER_23_51
*635 FILLER_23_55
*636 FILLER_23_57
*637 FILLER_23_69
*638 FILLER_23_81
*639 FILLER_23_93
*640 FILLER_24_109
*641 FILLER_24_121
*642 FILLER_24_133
*643 FILLER_24_139
*644 FILLER_24_144
*645 FILLER_24_15
*646 FILLER_24_156
*647 FILLER_24_168
*648 FILLER_24_180
*649 FILLER_24_192
*650 FILLER_24_197
*651 FILLER_24_209
*652 FILLER_24_224
*653 FILLER_24_236
*654 FILLER_24_248
*655 FILLER_24_253
*656 FILLER_24_265
*657 FILLER_24_27
*658 FILLER_24_277
*659 FILLER_24_289
*660 FILLER_24_29
*661 FILLER_24_3
*662 FILLER_24_301
*663 FILLER_24_307
*664 FILLER_24_309
*665 FILLER_24_321
*666 FILLER_24_333
*667 FILLER_24_345
*668 FILLER_24_41
*669 FILLER_24_53
*670 FILLER_24_65
*671 FILLER_24_77
*672 FILLER_24_83
*673 FILLER_24_85
*674 FILLER_24_97
*675 FILLER_25_105
*676 FILLER_25_111
*677 FILLER_25_113
*678 FILLER_25_125
*679 FILLER_25_137
*680 FILLER_25_149
*681 FILLER_25_15
*682 FILLER_25_161
*683 FILLER_25_167
*684 FILLER_25_169
*685 FILLER_25_181
*686 FILLER_25_193
*687 FILLER_25_205
*688 FILLER_25_217
*689 FILLER_25_223
*690 FILLER_25_225
*691 FILLER_25_237
*692 FILLER_25_249
*693 FILLER_25_261
*694 FILLER_25_27
*695 FILLER_25_273
*696 FILLER_25_279
*697 FILLER_25_281
*698 FILLER_25_293
*699 FILLER_25_3
*700 FILLER_25_305
*701 FILLER_25_317
*702 FILLER_25_329
*703 FILLER_25_335
*704 FILLER_25_337
*705 FILLER_25_349
*706 FILLER_25_39
*707 FILLER_25_51
*708 FILLER_25_55
*709 FILLER_25_57
*710 FILLER_25_69
*711 FILLER_25_81
*712 FILLER_25_93
*713 FILLER_26_109
*714 FILLER_26_121
*715 FILLER_26_133
*716 FILLER_26_139
*717 FILLER_26_141
*718 FILLER_26_15
*719 FILLER_26_153
*720 FILLER_26_165
*721 FILLER_26_177
*722 FILLER_26_189
*723 FILLER_26_195
*724 FILLER_26_197
*725 FILLER_26_209
*726 FILLER_26_221
*727 FILLER_26_233
*728 FILLER_26_245
*729 FILLER_26_251
*730 FILLER_26_253
*731 FILLER_26_265
*732 FILLER_26_27
*733 FILLER_26_277
*734 FILLER_26_289
*735 FILLER_26_29
*736 FILLER_26_3
*737 FILLER_26_301
*738 FILLER_26_307
*739 FILLER_26_309
*740 FILLER_26_321
*741 FILLER_26_333
*742 FILLER_26_345
*743 FILLER_26_41
*744 FILLER_26_53
*745 FILLER_26_65
*746 FILLER_26_77
*747 FILLER_26_83
*748 FILLER_26_85
*749 FILLER_26_97
*750 FILLER_27_105
*751 FILLER_27_111
*752 FILLER_27_113
*753 FILLER_27_125
*754 FILLER_27_137
*755 FILLER_27_149
*756 FILLER_27_15
*757 FILLER_27_161
*758 FILLER_27_167
*759 FILLER_27_169
*760 FILLER_27_181
*761 FILLER_27_195
*762 FILLER_27_207
*763 FILLER_27_219
*764 FILLER_27_223
*765 FILLER_27_225
*766 FILLER_27_237
*767 FILLER_27_249
*768 FILLER_27_261
*769 FILLER_27_27
*770 FILLER_27_273
*771 FILLER_27_279
*772 FILLER_27_281
*773 FILLER_27_293
*774 FILLER_27_3
*775 FILLER_27_305
*776 FILLER_27_317
*777 FILLER_27_329
*778 FILLER_27_335
*779 FILLER_27_337
*780 FILLER_27_349
*781 FILLER_27_39
*782 FILLER_27_51
*783 FILLER_27_55
*784 FILLER_27_57
*785 FILLER_27_69
*786 FILLER_27_81
*787 FILLER_27_93
*788 FILLER_28_109
*789 FILLER_28_121
*790 FILLER_28_133
*791 FILLER_28_139
*792 FILLER_28_141
*793 FILLER_28_15
*794 FILLER_28_153
*795 FILLER_28_171
*796 FILLER_28_178
*797 FILLER_28_190
*798 FILLER_28_197
*799 FILLER_28_209
*800 FILLER_28_221
*801 FILLER_28_233
*802 FILLER_28_245
*803 FILLER_28_251
*804 FILLER_28_253
*805 FILLER_28_265
*806 FILLER_28_27
*807 FILLER_28_277
*808 FILLER_28_289
*809 FILLER_28_29
*810 FILLER_28_3
*811 FILLER_28_301
*812 FILLER_28_307
*813 FILLER_28_309
*814 FILLER_28_321
*815 FILLER_28_333
*816 FILLER_28_345
*817 FILLER_28_41
*818 FILLER_28_53
*819 FILLER_28_65
*820 FILLER_28_77
*821 FILLER_28_83
*822 FILLER_28_85
*823 FILLER_28_97
*824 FILLER_29_105
*825 FILLER_29_111
*826 FILLER_29_113
*827 FILLER_29_125
*828 FILLER_29_137
*829 FILLER_29_149
*830 FILLER_29_15
*831 FILLER_29_164
*832 FILLER_29_169
*833 FILLER_29_185
*834 FILLER_29_197
*835 FILLER_29_209
*836 FILLER_29_221
*837 FILLER_29_225
*838 FILLER_29_237
*839 FILLER_29_249
*840 FILLER_29_261
*841 FILLER_29_27
*842 FILLER_29_273
*843 FILLER_29_279
*844 FILLER_29_281
*845 FILLER_29_293
*846 FILLER_29_3
*847 FILLER_29_305
*848 FILLER_29_317
*849 FILLER_29_329
*850 FILLER_29_335
*851 FILLER_29_337
*852 FILLER_29_349
*853 FILLER_29_39
*854 FILLER_29_51
*855 FILLER_29_55
*856 FILLER_29_57
*857 FILLER_29_69
*858 FILLER_29_81
*859 FILLER_29_93
*860 FILLER_2_109
*861 FILLER_2_121
*862 FILLER_2_133
*863 FILLER_2_139
*864 FILLER_2_141
*865 FILLER_2_15
*866 FILLER_2_153
*867 FILLER_2_165
*868 FILLER_2_177
*869 FILLER_2_189
*870 FILLER_2_195
*871 FILLER_2_197
*872 FILLER_2_209
*873 FILLER_2_221
*874 FILLER_2_233
*875 FILLER_2_245
*876 FILLER_2_251
*877 FILLER_2_253
*878 FILLER_2_265
*879 FILLER_2_27
*880 FILLER_2_277
*881 FILLER_2_289
*882 FILLER_2_29
*883 FILLER_2_3
*884 FILLER_2_301
*885 FILLER_2_307
*886 FILLER_2_309
*887 FILLER_2_321
*888 FILLER_2_333
*889 FILLER_2_345
*890 FILLER_2_41
*891 FILLER_2_53
*892 FILLER_2_65
*893 FILLER_2_77
*894 FILLER_2_83
*895 FILLER_2_85
*896 FILLER_2_97
*897 FILLER_30_109
*898 FILLER_30_121
*899 FILLER_30_133
*900 FILLER_30_139
*901 FILLER_30_141
*902 FILLER_30_15
*903 FILLER_30_163
*904 FILLER_30_177
*905 FILLER_30_189
*906 FILLER_30_195
*907 FILLER_30_197
*908 FILLER_30_209
*909 FILLER_30_221
*910 FILLER_30_233
*911 FILLER_30_245
*912 FILLER_30_251
*913 FILLER_30_253
*914 FILLER_30_265
*915 FILLER_30_27
*916 FILLER_30_277
*917 FILLER_30_289
*918 FILLER_30_29
*919 FILLER_30_3
*920 FILLER_30_301
*921 FILLER_30_307
*922 FILLER_30_309
*923 FILLER_30_321
*924 FILLER_30_333
*925 FILLER_30_345
*926 FILLER_30_41
*927 FILLER_30_53
*928 FILLER_30_65
*929 FILLER_30_77
*930 FILLER_30_83
*931 FILLER_30_85
*932 FILLER_30_97
*933 FILLER_31_105
*934 FILLER_31_111
*935 FILLER_31_113
*936 FILLER_31_125
*937 FILLER_31_137
*938 FILLER_31_149
*939 FILLER_31_15
*940 FILLER_31_161
*941 FILLER_31_167
*942 FILLER_31_179
*943 FILLER_31_191
*944 FILLER_31_202
*945 FILLER_31_214
*946 FILLER_31_222
*947 FILLER_31_225
*948 FILLER_31_237
*949 FILLER_31_249
*950 FILLER_31_261
*951 FILLER_31_27
*952 FILLER_31_273
*953 FILLER_31_279
*954 FILLER_31_281
*955 FILLER_31_293
*956 FILLER_31_3
*957 FILLER_31_305
*958 FILLER_31_317
*959 FILLER_31_329
*960 FILLER_31_335
*961 FILLER_31_337
*962 FILLER_31_349
*963 FILLER_31_39
*964 FILLER_31_51
*965 FILLER_31_55
*966 FILLER_31_57
*967 FILLER_31_69
*968 FILLER_31_81
*969 FILLER_31_93
*970 FILLER_32_109
*971 FILLER_32_121
*972 FILLER_32_133
*973 FILLER_32_139
*974 FILLER_32_141
*975 FILLER_32_15
*976 FILLER_32_153
*977 FILLER_32_165
*978 FILLER_32_177
*979 FILLER_32_192
*980 FILLER_32_197
*981 FILLER_32_209
*982 FILLER_32_221
*983 FILLER_32_233
*984 FILLER_32_245
*985 FILLER_32_251
*986 FILLER_32_253
*987 FILLER_32_265
*988 FILLER_32_27
*989 FILLER_32_277
*990 FILLER_32_289
*991 FILLER_32_29
*992 FILLER_32_3
*993 FILLER_32_301
*994 FILLER_32_307
*995 FILLER_32_309
*996 FILLER_32_321
*997 FILLER_32_333
*998 FILLER_32_345
*999 FILLER_32_41
*1000 FILLER_32_53
*1001 FILLER_32_65
*1002 FILLER_32_77
*1003 FILLER_32_83
*1004 FILLER_32_85
*1005 FILLER_32_97
*1006 FILLER_33_105
*1007 FILLER_33_111
*1008 FILLER_33_113
*1009 FILLER_33_125
*1010 FILLER_33_137
*1011 FILLER_33_149
*1012 FILLER_33_15
*1013 FILLER_33_161
*1014 FILLER_33_167
*1015 FILLER_33_169
*1016 FILLER_33_181
*1017 FILLER_33_193
*1018 FILLER_33_205
*1019 FILLER_33_217
*1020 FILLER_33_223
*1021 FILLER_33_225
*1022 FILLER_33_237
*1023 FILLER_33_249
*1024 FILLER_33_261
*1025 FILLER_33_27
*1026 FILLER_33_273
*1027 FILLER_33_279
*1028 FILLER_33_281
*1029 FILLER_33_293
*1030 FILLER_33_3
*1031 FILLER_33_305
*1032 FILLER_33_317
*1033 FILLER_33_329
*1034 FILLER_33_335
*1035 FILLER_33_337
*1036 FILLER_33_349
*1037 FILLER_33_39
*1038 FILLER_33_51
*1039 FILLER_33_55
*1040 FILLER_33_57
*1041 FILLER_33_69
*1042 FILLER_33_81
*1043 FILLER_33_93
*1044 FILLER_34_109
*1045 FILLER_34_121
*1046 FILLER_34_133
*1047 FILLER_34_139
*1048 FILLER_34_141
*1049 FILLER_34_15
*1050 FILLER_34_153
*1051 FILLER_34_165
*1052 FILLER_34_177
*1053 FILLER_34_189
*1054 FILLER_34_195
*1055 FILLER_34_197
*1056 FILLER_34_209
*1057 FILLER_34_221
*1058 FILLER_34_233
*1059 FILLER_34_245
*1060 FILLER_34_251
*1061 FILLER_34_253
*1062 FILLER_34_265
*1063 FILLER_34_27
*1064 FILLER_34_277
*1065 FILLER_34_289
*1066 FILLER_34_29
*1067 FILLER_34_3
*1068 FILLER_34_301
*1069 FILLER_34_307
*1070 FILLER_34_309
*1071 FILLER_34_321
*1072 FILLER_34_333
*1073 FILLER_34_345
*1074 FILLER_34_41
*1075 FILLER_34_53
*1076 FILLER_34_65
*1077 FILLER_34_77
*1078 FILLER_34_83
*1079 FILLER_34_85
*1080 FILLER_34_97
*1081 FILLER_35_105
*1082 FILLER_35_111
*1083 FILLER_35_113
*1084 FILLER_35_125
*1085 FILLER_35_137
*1086 FILLER_35_149
*1087 FILLER_35_15
*1088 FILLER_35_161
*1089 FILLER_35_167
*1090 FILLER_35_169
*1091 FILLER_35_181
*1092 FILLER_35_193
*1093 FILLER_35_199
*1094 FILLER_35_211
*1095 FILLER_35_223
*1096 FILLER_35_225
*1097 FILLER_35_237
*1098 FILLER_35_249
*1099 FILLER_35_261
*1100 FILLER_35_27
*1101 FILLER_35_273
*1102 FILLER_35_279
*1103 FILLER_35_281
*1104 FILLER_35_293
*1105 FILLER_35_3
*1106 FILLER_35_305
*1107 FILLER_35_317
*1108 FILLER_35_329
*1109 FILLER_35_335
*1110 FILLER_35_337
*1111 FILLER_35_349
*1112 FILLER_35_39
*1113 FILLER_35_51
*1114 FILLER_35_55
*1115 FILLER_35_57
*1116 FILLER_35_69
*1117 FILLER_35_81
*1118 FILLER_35_93
*1119 FILLER_36_109
*1120 FILLER_36_121
*1121 FILLER_36_133
*1122 FILLER_36_139
*1123 FILLER_36_144
*1124 FILLER_36_15
*1125 FILLER_36_156
*1126 FILLER_36_168
*1127 FILLER_36_180
*1128 FILLER_36_192
*1129 FILLER_36_197
*1130 FILLER_36_209
*1131 FILLER_36_220
*1132 FILLER_36_232
*1133 FILLER_36_244
*1134 FILLER_36_253
*1135 FILLER_36_265
*1136 FILLER_36_27
*1137 FILLER_36_277
*1138 FILLER_36_289
*1139 FILLER_36_29
*1140 FILLER_36_3
*1141 FILLER_36_301
*1142 FILLER_36_307
*1143 FILLER_36_309
*1144 FILLER_36_321
*1145 FILLER_36_333
*1146 FILLER_36_345
*1147 FILLER_36_41
*1148 FILLER_36_53
*1149 FILLER_36_65
*1150 FILLER_36_77
*1151 FILLER_36_83
*1152 FILLER_36_85
*1153 FILLER_36_97
*1154 FILLER_37_105
*1155 FILLER_37_111
*1156 FILLER_37_113
*1157 FILLER_37_125
*1158 FILLER_37_137
*1159 FILLER_37_149
*1160 FILLER_37_15
*1161 FILLER_37_161
*1162 FILLER_37_167
*1163 FILLER_37_169
*1164 FILLER_37_181
*1165 FILLER_37_193
*1166 FILLER_37_205
*1167 FILLER_37_217
*1168 FILLER_37_223
*1169 FILLER_37_225
*1170 FILLER_37_237
*1171 FILLER_37_249
*1172 FILLER_37_261
*1173 FILLER_37_27
*1174 FILLER_37_273
*1175 FILLER_37_279
*1176 FILLER_37_281
*1177 FILLER_37_293
*1178 FILLER_37_3
*1179 FILLER_37_305
*1180 FILLER_37_317
*1181 FILLER_37_329
*1182 FILLER_37_335
*1183 FILLER_37_337
*1184 FILLER_37_349
*1185 FILLER_37_39
*1186 FILLER_37_51
*1187 FILLER_37_55
*1188 FILLER_37_57
*1189 FILLER_37_69
*1190 FILLER_37_81
*1191 FILLER_37_93
*1192 FILLER_38_109
*1193 FILLER_38_121
*1194 FILLER_38_133
*1195 FILLER_38_139
*1196 FILLER_38_141
*1197 FILLER_38_15
*1198 FILLER_38_153
*1199 FILLER_38_165
*1200 FILLER_38_177
*1201 FILLER_38_189
*1202 FILLER_38_195
*1203 FILLER_38_197
*1204 FILLER_38_209
*1205 FILLER_38_221
*1206 FILLER_38_233
*1207 FILLER_38_245
*1208 FILLER_38_251
*1209 FILLER_38_253
*1210 FILLER_38_265
*1211 FILLER_38_27
*1212 FILLER_38_277
*1213 FILLER_38_289
*1214 FILLER_38_29
*1215 FILLER_38_3
*1216 FILLER_38_301
*1217 FILLER_38_307
*1218 FILLER_38_309
*1219 FILLER_38_321
*1220 FILLER_38_333
*1221 FILLER_38_345
*1222 FILLER_38_41
*1223 FILLER_38_53
*1224 FILLER_38_65
*1225 FILLER_38_77
*1226 FILLER_38_83
*1227 FILLER_38_85
*1228 FILLER_38_97
*1229 FILLER_39_105
*1230 FILLER_39_111
*1231 FILLER_39_113
*1232 FILLER_39_125
*1233 FILLER_39_137
*1234 FILLER_39_149
*1235 FILLER_39_15
*1236 FILLER_39_161
*1237 FILLER_39_167
*1238 FILLER_39_169
*1239 FILLER_39_181
*1240 FILLER_39_193
*1241 FILLER_39_205
*1242 FILLER_39_217
*1243 FILLER_39_223
*1244 FILLER_39_225
*1245 FILLER_39_237
*1246 FILLER_39_249
*1247 FILLER_39_261
*1248 FILLER_39_27
*1249 FILLER_39_273
*1250 FILLER_39_279
*1251 FILLER_39_281
*1252 FILLER_39_293
*1253 FILLER_39_3
*1254 FILLER_39_305
*1255 FILLER_39_317
*1256 FILLER_39_329
*1257 FILLER_39_335
*1258 FILLER_39_337
*1259 FILLER_39_349
*1260 FILLER_39_39
*1261 FILLER_39_51
*1262 FILLER_39_55
*1263 FILLER_39_57
*1264 FILLER_39_69
*1265 FILLER_39_81
*1266 FILLER_39_93
*1267 FILLER_3_105
*1268 FILLER_3_111
*1269 FILLER_3_113
*1270 FILLER_3_125
*1271 FILLER_3_137
*1272 FILLER_3_149
*1273 FILLER_3_15
*1274 FILLER_3_161
*1275 FILLER_3_167
*1276 FILLER_3_169
*1277 FILLER_3_181
*1278 FILLER_3_193
*1279 FILLER_3_205
*1280 FILLER_3_217
*1281 FILLER_3_223
*1282 FILLER_3_225
*1283 FILLER_3_237
*1284 FILLER_3_249
*1285 FILLER_3_261
*1286 FILLER_3_27
*1287 FILLER_3_273
*1288 FILLER_3_279
*1289 FILLER_3_281
*1290 FILLER_3_293
*1291 FILLER_3_3
*1292 FILLER_3_305
*1293 FILLER_3_317
*1294 FILLER_3_329
*1295 FILLER_3_335
*1296 FILLER_3_337
*1297 FILLER_3_349
*1298 FILLER_3_39
*1299 FILLER_3_51
*1300 FILLER_3_55
*1301 FILLER_3_57
*1302 FILLER_3_69
*1303 FILLER_3_81
*1304 FILLER_3_93
*1305 FILLER_40_109
*1306 FILLER_40_121
*1307 FILLER_40_133
*1308 FILLER_40_139
*1309 FILLER_40_141
*1310 FILLER_40_15
*1311 FILLER_40_153
*1312 FILLER_40_165
*1313 FILLER_40_177
*1314 FILLER_40_189
*1315 FILLER_40_195
*1316 FILLER_40_197
*1317 FILLER_40_209
*1318 FILLER_40_221
*1319 FILLER_40_233
*1320 FILLER_40_245
*1321 FILLER_40_251
*1322 FILLER_40_253
*1323 FILLER_40_265
*1324 FILLER_40_27
*1325 FILLER_40_277
*1326 FILLER_40_289
*1327 FILLER_40_29
*1328 FILLER_40_3
*1329 FILLER_40_301
*1330 FILLER_40_307
*1331 FILLER_40_309
*1332 FILLER_40_321
*1333 FILLER_40_333
*1334 FILLER_40_345
*1335 FILLER_40_41
*1336 FILLER_40_53
*1337 FILLER_40_65
*1338 FILLER_40_77
*1339 FILLER_40_83
*1340 FILLER_40_85
*1341 FILLER_40_97
*1342 FILLER_41_105
*1343 FILLER_41_111
*1344 FILLER_41_113
*1345 FILLER_41_125
*1346 FILLER_41_137
*1347 FILLER_41_149
*1348 FILLER_41_161
*1349 FILLER_41_167
*1350 FILLER_41_169
*1351 FILLER_41_181
*1352 FILLER_41_19
*1353 FILLER_41_193
*1354 FILLER_41_205
*1355 FILLER_41_217
*1356 FILLER_41_223
*1357 FILLER_41_225
*1358 FILLER_41_237
*1359 FILLER_41_249
*1360 FILLER_41_261
*1361 FILLER_41_273
*1362 FILLER_41_279
*1363 FILLER_41_281
*1364 FILLER_41_293
*1365 FILLER_41_305
*1366 FILLER_41_31
*1367 FILLER_41_317
*1368 FILLER_41_329
*1369 FILLER_41_335
*1370 FILLER_41_337
*1371 FILLER_41_349
*1372 FILLER_41_43
*1373 FILLER_41_55
*1374 FILLER_41_57
*1375 FILLER_41_69
*1376 FILLER_41_7
*1377 FILLER_41_81
*1378 FILLER_41_93
*1379 FILLER_42_109
*1380 FILLER_42_121
*1381 FILLER_42_133
*1382 FILLER_42_139
*1383 FILLER_42_141
*1384 FILLER_42_15
*1385 FILLER_42_153
*1386 FILLER_42_165
*1387 FILLER_42_177
*1388 FILLER_42_189
*1389 FILLER_42_195
*1390 FILLER_42_197
*1391 FILLER_42_209
*1392 FILLER_42_221
*1393 FILLER_42_233
*1394 FILLER_42_245
*1395 FILLER_42_251
*1396 FILLER_42_253
*1397 FILLER_42_265
*1398 FILLER_42_27
*1399 FILLER_42_277
*1400 FILLER_42_289
*1401 FILLER_42_29
*1402 FILLER_42_3
*1403 FILLER_42_301
*1404 FILLER_42_307
*1405 FILLER_42_309
*1406 FILLER_42_321
*1407 FILLER_42_333
*1408 FILLER_42_345
*1409 FILLER_42_353
*1410 FILLER_42_41
*1411 FILLER_42_53
*1412 FILLER_42_65
*1413 FILLER_42_77
*1414 FILLER_42_83
*1415 FILLER_42_85
*1416 FILLER_42_97
*1417 FILLER_43_105
*1418 FILLER_43_111
*1419 FILLER_43_113
*1420 FILLER_43_125
*1421 FILLER_43_137
*1422 FILLER_43_149
*1423 FILLER_43_15
*1424 FILLER_43_161
*1425 FILLER_43_167
*1426 FILLER_43_169
*1427 FILLER_43_181
*1428 FILLER_43_193
*1429 FILLER_43_205
*1430 FILLER_43_217
*1431 FILLER_43_223
*1432 FILLER_43_225
*1433 FILLER_43_237
*1434 FILLER_43_249
*1435 FILLER_43_261
*1436 FILLER_43_27
*1437 FILLER_43_273
*1438 FILLER_43_279
*1439 FILLER_43_281
*1440 FILLER_43_293
*1441 FILLER_43_3
*1442 FILLER_43_305
*1443 FILLER_43_317
*1444 FILLER_43_329
*1445 FILLER_43_335
*1446 FILLER_43_337
*1447 FILLER_43_349
*1448 FILLER_43_39
*1449 FILLER_43_51
*1450 FILLER_43_55
*1451 FILLER_43_57
*1452 FILLER_43_69
*1453 FILLER_43_81
*1454 FILLER_43_93
*1455 FILLER_44_109
*1456 FILLER_44_121
*1457 FILLER_44_133
*1458 FILLER_44_139
*1459 FILLER_44_141
*1460 FILLER_44_15
*1461 FILLER_44_153
*1462 FILLER_44_165
*1463 FILLER_44_177
*1464 FILLER_44_189
*1465 FILLER_44_195
*1466 FILLER_44_197
*1467 FILLER_44_209
*1468 FILLER_44_221
*1469 FILLER_44_233
*1470 FILLER_44_245
*1471 FILLER_44_251
*1472 FILLER_44_253
*1473 FILLER_44_265
*1474 FILLER_44_27
*1475 FILLER_44_277
*1476 FILLER_44_289
*1477 FILLER_44_29
*1478 FILLER_44_3
*1479 FILLER_44_301
*1480 FILLER_44_307
*1481 FILLER_44_309
*1482 FILLER_44_321
*1483 FILLER_44_333
*1484 FILLER_44_345
*1485 FILLER_44_41
*1486 FILLER_44_53
*1487 FILLER_44_65
*1488 FILLER_44_77
*1489 FILLER_44_83
*1490 FILLER_44_85
*1491 FILLER_44_97
*1492 FILLER_45_105
*1493 FILLER_45_111
*1494 FILLER_45_113
*1495 FILLER_45_125
*1496 FILLER_45_137
*1497 FILLER_45_149
*1498 FILLER_45_15
*1499 FILLER_45_161
*1500 FILLER_45_167
*1501 FILLER_45_169
*1502 FILLER_45_181
*1503 FILLER_45_193
*1504 FILLER_45_205
*1505 FILLER_45_217
*1506 FILLER_45_223
*1507 FILLER_45_225
*1508 FILLER_45_237
*1509 FILLER_45_249
*1510 FILLER_45_261
*1511 FILLER_45_27
*1512 FILLER_45_273
*1513 FILLER_45_279
*1514 FILLER_45_281
*1515 FILLER_45_293
*1516 FILLER_45_3
*1517 FILLER_45_305
*1518 FILLER_45_317
*1519 FILLER_45_329
*1520 FILLER_45_335
*1521 FILLER_45_337
*1522 FILLER_45_349
*1523 FILLER_45_39
*1524 FILLER_45_51
*1525 FILLER_45_55
*1526 FILLER_45_57
*1527 FILLER_45_69
*1528 FILLER_45_81
*1529 FILLER_45_93
*1530 FILLER_46_109
*1531 FILLER_46_121
*1532 FILLER_46_133
*1533 FILLER_46_139
*1534 FILLER_46_141
*1535 FILLER_46_15
*1536 FILLER_46_153
*1537 FILLER_46_165
*1538 FILLER_46_177
*1539 FILLER_46_189
*1540 FILLER_46_195
*1541 FILLER_46_197
*1542 FILLER_46_209
*1543 FILLER_46_221
*1544 FILLER_46_233
*1545 FILLER_46_245
*1546 FILLER_46_251
*1547 FILLER_46_253
*1548 FILLER_46_265
*1549 FILLER_46_27
*1550 FILLER_46_277
*1551 FILLER_46_289
*1552 FILLER_46_29
*1553 FILLER_46_3
*1554 FILLER_46_301
*1555 FILLER_46_307
*1556 FILLER_46_309
*1557 FILLER_46_321
*1558 FILLER_46_333
*1559 FILLER_46_345
*1560 FILLER_46_41
*1561 FILLER_46_53
*1562 FILLER_46_65
*1563 FILLER_46_77
*1564 FILLER_46_83
*1565 FILLER_46_85
*1566 FILLER_46_97
*1567 FILLER_47_105
*1568 FILLER_47_111
*1569 FILLER_47_113
*1570 FILLER_47_125
*1571 FILLER_47_137
*1572 FILLER_47_149
*1573 FILLER_47_15
*1574 FILLER_47_161
*1575 FILLER_47_167
*1576 FILLER_47_169
*1577 FILLER_47_181
*1578 FILLER_47_193
*1579 FILLER_47_205
*1580 FILLER_47_217
*1581 FILLER_47_223
*1582 FILLER_47_225
*1583 FILLER_47_237
*1584 FILLER_47_249
*1585 FILLER_47_261
*1586 FILLER_47_27
*1587 FILLER_47_273