*SPEF "ieee 1481-1999"
*DESIGN "xor_gate"
*DATE "11:11:11 Fri 11 11, 1111"
*VENDOR "OpenRCX"
*PROGRAM "Parallel Extraction"
*VERSION "1.0"
*DESIGN_FLOW "NAME_SCOPE LOCAL" "PIN_CAP NONE"
*DIVIDER /
*DELIMITER :
*BUS_DELIMITER []
*T_UNIT 1 NS
*C_UNIT 1 PF
*R_UNIT 1 OHM
*L_UNIT 1 HENRY

*NAME_MAP
*3 in1
*4 in2
*5 out
*6 net1
*7 net2
*8 net3
*9 FILLER_0_109
*10 FILLER_0_113
*11 FILLER_0_119
*12 FILLER_0_18
*13 FILLER_0_26
*14 FILLER_0_29
*15 FILLER_0_41
*16 FILLER_0_53
*17 FILLER_0_57
*18 FILLER_0_6
*19 FILLER_0_69
*20 FILLER_0_81
*21 FILLER_0_85
*22 FILLER_0_97
*23 FILLER_10_109
*24 FILLER_10_117
*25 FILLER_10_15
*26 FILLER_10_27
*27 FILLER_10_29
*28 FILLER_10_3
*29 FILLER_10_41
*30 FILLER_10_53
*31 FILLER_10_65
*32 FILLER_10_77
*33 FILLER_10_83
*34 FILLER_10_85
*35 FILLER_10_97
*36 FILLER_11_105
*37 FILLER_11_111
*38 FILLER_11_113
*39 FILLER_11_119
*40 FILLER_11_15
*41 FILLER_11_27
*42 FILLER_11_3
*43 FILLER_11_39
*44 FILLER_11_51
*45 FILLER_11_55
*46 FILLER_11_57
*47 FILLER_11_69
*48 FILLER_11_81
*49 FILLER_11_93
*50 FILLER_12_109
*51 FILLER_12_117
*52 FILLER_12_15
*53 FILLER_12_27
*54 FILLER_12_29
*55 FILLER_12_3
*56 FILLER_12_41
*57 FILLER_12_53
*58 FILLER_12_65
*59 FILLER_12_77
*60 FILLER_12_83
*61 FILLER_12_85
*62 FILLER_12_97
*63 FILLER_13_105
*64 FILLER_13_111
*65 FILLER_13_113
*66 FILLER_13_119
*67 FILLER_13_15
*68 FILLER_13_27
*69 FILLER_13_3
*70 FILLER_13_39
*71 FILLER_13_51
*72 FILLER_13_55
*73 FILLER_13_57
*74 FILLER_13_69
*75 FILLER_13_81
*76 FILLER_13_93
*77 FILLER_14_109
*78 FILLER_14_117
*79 FILLER_14_15
*80 FILLER_14_27
*81 FILLER_14_29
*82 FILLER_14_3
*83 FILLER_14_41
*84 FILLER_14_53
*85 FILLER_14_65
*86 FILLER_14_77
*87 FILLER_14_83
*88 FILLER_14_85
*89 FILLER_14_97
*90 FILLER_15_105
*91 FILLER_15_111
*92 FILLER_15_113
*93 FILLER_15_119
*94 FILLER_15_15
*95 FILLER_15_27
*96 FILLER_15_3
*97 FILLER_15_39
*98 FILLER_15_51
*99 FILLER_15_55
*100 FILLER_15_57
*101 FILLER_15_69
*102 FILLER_15_81
*103 FILLER_15_93
*104 FILLER_16_109
*105 FILLER_16_117
*106 FILLER_16_15
*107 FILLER_16_27
*108 FILLER_16_29
*109 FILLER_16_3
*110 FILLER_16_41
*111 FILLER_16_53
*112 FILLER_16_65
*113 FILLER_16_77
*114 FILLER_16_83
*115 FILLER_16_85
*116 FILLER_16_97
*117 FILLER_17_105
*118 FILLER_17_111
*119 FILLER_17_113
*120 FILLER_17_119
*121 FILLER_17_15
*122 FILLER_17_27
*123 FILLER_17_3
*124 FILLER_17_39
*125 FILLER_17_51
*126 FILLER_17_55
*127 FILLER_17_57
*128 FILLER_17_69
*129 FILLER_17_81
*130 FILLER_17_93
*131 FILLER_18_109
*132 FILLER_18_117
*133 FILLER_18_15
*134 FILLER_18_27
*135 FILLER_18_29
*136 FILLER_18_3
*137 FILLER_18_41
*138 FILLER_18_53
*139 FILLER_18_65
*140 FILLER_18_77
*141 FILLER_18_83
*142 FILLER_18_85
*143 FILLER_18_97
*144 FILLER_19_109
*145 FILLER_19_113
*146 FILLER_19_119
*147 FILLER_19_15
*148 FILLER_19_27
*149 FILLER_19_29
*150 FILLER_19_3
*151 FILLER_19_34
*152 FILLER_19_46
*153 FILLER_19_54
*154 FILLER_19_57
*155 FILLER_19_69
*156 FILLER_19_81
*157 FILLER_19_85
*158 FILLER_19_97
*159 FILLER_1_105
*160 FILLER_1_111
*161 FILLER_1_113
*162 FILLER_1_119
*163 FILLER_1_15
*164 FILLER_1_27
*165 FILLER_1_3
*166 FILLER_1_39
*167 FILLER_1_51
*168 FILLER_1_55
*169 FILLER_1_57
*170 FILLER_1_69
*171 FILLER_1_81
*172 FILLER_1_93
*173 FILLER_2_109
*174 FILLER_2_117
*175 FILLER_2_15
*176 FILLER_2_27
*177 FILLER_2_29
*178 FILLER_2_3
*179 FILLER_2_41
*180 FILLER_2_53
*181 FILLER_2_65
*182 FILLER_2_77
*183 FILLER_2_83
*184 FILLER_2_85
*185 FILLER_2_97
*186 FILLER_3_105
*187 FILLER_3_111
*188 FILLER_3_113
*189 FILLER_3_119
*190 FILLER_3_15
*191 FILLER_3_27
*192 FILLER_3_3
*193 FILLER_3_39
*194 FILLER_3_51
*195 FILLER_3_55
*196 FILLER_3_57
*197 FILLER_3_69
*198 FILLER_3_81
*199 FILLER_3_93
*200 FILLER_4_109
*201 FILLER_4_117
*202 FILLER_4_15
*203 FILLER_4_27
*204 FILLER_4_29
*205 FILLER_4_3
*206 FILLER_4_41
*207 FILLER_4_53
*208 FILLER_4_65
*209 FILLER_4_77
*210 FILLER_4_83
*211 FILLER_4_85
*212 FILLER_4_97
*213 FILLER_5_105
*214 FILLER_5_111
*215 FILLER_5_113
*216 FILLER_5_119
*217 FILLER_5_15
*218 FILLER_5_27
*219 FILLER_5_3
*220 FILLER_5_39
*221 FILLER_5_51
*222 FILLER_5_55
*223 FILLER_5_57
*224 FILLER_5_69
*225 FILLER_5_81
*226 FILLER_5_93
*227 FILLER_6_109
*228 FILLER_6_116
*229 FILLER_6_15
*230 FILLER_6_27
*231 FILLER_6_3
*232 FILLER_6_36
*233 FILLER_6_48
*234 FILLER_6_60
*235 FILLER_6_72
*236 FILLER_6_85
*237 FILLER_6_97
*238 FILLER_7_105
*239 FILLER_7_111
*240 FILLER_7_113
*241 FILLER_7_119
*242 FILLER_7_15
*243 FILLER_7_27
*244 FILLER_7_3
*245 FILLER_7_39
*246 FILLER_7_51
*247 FILLER_7_55
*248 FILLER_7_57
*249 FILLER_7_69
*250 FILLER_7_81
*251 FILLER_7_93
*252 FILLER_8_109
*253 FILLER_8_117
*254 FILLER_8_15
*255 FILLER_8_27
*256 FILLER_8_29
*257 FILLER_8_3
*258 FILLER_8_41
*259 FILLER_8_53
*260 FILLER_8_65
*261 FILLER_8_77
*262 FILLER_8_83
*263 FILLER_8_85
*264 FILLER_8_97
*265 FILLER_9_105
*266 FILLER_9_111
*267 FILLER_9_113
*268 FILLER_9_119
*269 FILLER_9_15
*270 FILLER_9_27
*271 FILLER_9_3
*272 FILLER_9_39
*273 FILLER_9_51
*274 FILLER_9_55
*275 FILLER_9_57
*276 FILLER_9_69
*277 FILLER_9_81
*278 FILLER_9_93
*279 PHY_0
*280 PHY_1
*281 PHY_10
*282 PHY_11
*283 PHY_12
*284 PHY_13
*285 PHY_14
*286 PHY_15
*287 PHY_16
*288 PHY_17
*289 PHY_18
*290 PHY_19
*291 PHY_2
*292 PHY_20
*293 PHY_21
*294 PHY_22
*295 PHY_23
*296 PHY_24
*297 PHY_25
*298 PHY_26
*299 PHY_27
*300 PHY_28
*301 PHY_29
*302 PHY_3
*303 PHY_30
*304 PHY_31
*305 PHY_32
*306 PHY_33
*307 PHY_34
*308 PHY_35
*309 PHY_36
*310 PHY_37
*311 PHY_38
*312 PHY_39
*313 PHY_4
*314 PHY_5
*315 PHY_6
*316 PHY_7
*317 PHY_8
*318 PHY_9
*319 TAP_40
*320 TAP_41
*321 TAP_42
*322 TAP_43
*323 TAP_44
*324 TAP_45
*325 TAP_46
*326 TAP_47
*327 TAP_48
*328 TAP_49
*329 TAP_50
*330 TAP_51
*331 TAP_52
*332 TAP_53
*333 TAP_54
*334 TAP_55
*335 TAP_56
*336 TAP_57
*337 TAP_58
*338 TAP_59
*339 TAP_60
*340 TAP_61
*341 TAP_62
*342 TAP_63
*343 TAP_64
*344 TAP_65
*345 TAP_66
*346 TAP_67
*347 TAP_68
*348 TAP_69
*349 TAP_70
*350 TAP_71
*351 TAP_72
*352 TAP_73
*353 TAP_74
*354 TAP_75
*355 TAP_76
*356 TAP_77
*357 TAP_78
*358 TAP_79
*359 TAP_80
*360 TAP_81
*361 TAP_82
*362 TAP_83
*363 _0_
*364 input1
*365 input2
*366 output3

*PORTS
in1 I
in2 I
out O

*D_NET *3 0.00126304
*CONN
*P in1 I
*I *364:A I *D sky130_fd_sc_hd__clkbuf_1
*CAP
1 in1 0.000631522
2 *364:A 0
3 *3:8 0.000631522
*RES
1 in1 *3:8 30.9914 
2 *3:8 *364:A 23 
*END

*D_NET *4 0.00099952
*CONN
*P in2 I
*I *365:A I *D sky130_fd_sc_hd__clkbuf_1
*CAP
1 in2 0.00049976
2 *365:A 0
3 *4:11 0.00049976
*RES
1 in2 *4:11 28.2364 
2 *4:11 *365:A 23 
*END

*D_NET *5 0.00061427
*CONN
*P out O
*I *366:X O *D sky130_fd_sc_hd__buf_2
*CAP
1 out 0.000307135
2 *366:X 0.000307135
*RES
1 *366:X out 47.5941 
*END

*D_NET *6 0.00224812
*CONN
*I *363:B I *D sky130_fd_sc_hd__xor2_1
*I *364:X O *D sky130_fd_sc_hd__clkbuf_1
*CAP
1 *363:B 0
2 *364:X 0.000438936
3 *6:11 0.000685126
4 *6:7 0.00112406
5 *6:11 *363:A 0
*RES
1 *364:X *6:7 48.6264 
2 *6:7 *6:11 32.9179 
3 *6:11 *363:B 23 
*END

*D_NET *7 0.00299672
*CONN
*I *363:A I *D sky130_fd_sc_hd__xor2_1
*I *365:X O *D sky130_fd_sc_hd__clkbuf_1
*CAP
1 *363:A 6.50276e-05
2 *365:X 6.50276e-05
3 *7:8 0.00143333
4 *7:7 0.00143333
5 *6:11 *363:A 0
*RES
1 *365:X *7:7 39.5743 
2 *7:7 *7:8 36.0636 
3 *7:8 *363:A 39.5743 
*END

*D_NET *8 0.00308967
*CONN
*I *366:A I *D sky130_fd_sc_hd__buf_2
*I *363:X O *D sky130_fd_sc_hd__xor2_1
*CAP
1 *366:A 0.000978622
2 *363:X 0.000566211
3 *8:7 0.00154483
*RES
1 *363:X *8:7 36.7439 
2 *8:7 *366:A 46.7282 
*END
