*SPEF "ieee 1481-1999"
*DESIGN "and_gate"
*DATE "11:11:11 Fri 11 11, 1111"
*VENDOR "OpenRCX"
*PROGRAM "Parallel Extraction"
*VERSION "1.0"
*DESIGN_FLOW "NAME_SCOPE LOCAL" "PIN_CAP NONE"
*DIVIDER /
*DELIMITER :
*BUS_DELIMITER []
*T_UNIT 1 NS
*C_UNIT 1 PF
*R_UNIT 1 OHM
*L_UNIT 1 HENRY

*NAME_MAP
*3 in1
*4 in2
*5 out
*6 _0_
*7 net1
*8 net2
*9 net3
*10 FILLER_0_18
*11 FILLER_0_26
*12 FILLER_0_29
*13 FILLER_0_41
*14 FILLER_0_53
*15 FILLER_0_57
*16 FILLER_0_6
*17 FILLER_0_69
*18 FILLER_0_81
*19 FILLER_0_85
*20 FILLER_0_97
*21 FILLER_10_15
*22 FILLER_10_27
*23 FILLER_10_29
*24 FILLER_10_3
*25 FILLER_10_41
*26 FILLER_10_53
*27 FILLER_10_65
*28 FILLER_10_77
*29 FILLER_10_83
*30 FILLER_10_85
*31 FILLER_10_97
*32 FILLER_11_15
*33 FILLER_11_27
*34 FILLER_11_3
*35 FILLER_11_39
*36 FILLER_11_51
*37 FILLER_11_55
*38 FILLER_11_57
*39 FILLER_11_69
*40 FILLER_11_81
*41 FILLER_11_93
*42 FILLER_11_99
*43 FILLER_12_15
*44 FILLER_12_27
*45 FILLER_12_29
*46 FILLER_12_3
*47 FILLER_12_41
*48 FILLER_12_53
*49 FILLER_12_65
*50 FILLER_12_77
*51 FILLER_12_83
*52 FILLER_12_85
*53 FILLER_12_97
*54 FILLER_13_15
*55 FILLER_13_27
*56 FILLER_13_3
*57 FILLER_13_39
*58 FILLER_13_51
*59 FILLER_13_55
*60 FILLER_13_57
*61 FILLER_13_69
*62 FILLER_13_81
*63 FILLER_13_93
*64 FILLER_13_99
*65 FILLER_14_15
*66 FILLER_14_27
*67 FILLER_14_29
*68 FILLER_14_3
*69 FILLER_14_41
*70 FILLER_14_53
*71 FILLER_14_65
*72 FILLER_14_77
*73 FILLER_14_83
*74 FILLER_14_85
*75 FILLER_14_97
*76 FILLER_15_15
*77 FILLER_15_27
*78 FILLER_15_3
*79 FILLER_15_39
*80 FILLER_15_51
*81 FILLER_15_55
*82 FILLER_15_57
*83 FILLER_15_69
*84 FILLER_15_81
*85 FILLER_15_93
*86 FILLER_15_99
*87 FILLER_16_15
*88 FILLER_16_27
*89 FILLER_16_3
*90 FILLER_16_32
*91 FILLER_16_44
*92 FILLER_16_57
*93 FILLER_16_69
*94 FILLER_16_81
*95 FILLER_16_85
*96 FILLER_16_97
*97 FILLER_1_15
*98 FILLER_1_27
*99 FILLER_1_3
*100 FILLER_1_39
*101 FILLER_1_51
*102 FILLER_1_55
*103 FILLER_1_57
*104 FILLER_1_69
*105 FILLER_1_81
*106 FILLER_1_93
*107 FILLER_1_99
*108 FILLER_2_15
*109 FILLER_2_27
*110 FILLER_2_29
*111 FILLER_2_3
*112 FILLER_2_41
*113 FILLER_2_53
*114 FILLER_2_65
*115 FILLER_2_77
*116 FILLER_2_83
*117 FILLER_2_85
*118 FILLER_2_97
*119 FILLER_3_15
*120 FILLER_3_27
*121 FILLER_3_3
*122 FILLER_3_39
*123 FILLER_3_51
*124 FILLER_3_55
*125 FILLER_3_57
*126 FILLER_3_69
*127 FILLER_3_81
*128 FILLER_3_93
*129 FILLER_3_99
*130 FILLER_4_15
*131 FILLER_4_27
*132 FILLER_4_3
*133 FILLER_4_34
*134 FILLER_4_41
*135 FILLER_4_53
*136 FILLER_4_65
*137 FILLER_4_77
*138 FILLER_4_83
*139 FILLER_4_85
*140 FILLER_4_97
*141 FILLER_5_15
*142 FILLER_5_27
*143 FILLER_5_3
*144 FILLER_5_39
*145 FILLER_5_51
*146 FILLER_5_55
*147 FILLER_5_57
*148 FILLER_5_69
*149 FILLER_5_81
*150 FILLER_5_89
*151 FILLER_5_96
*152 FILLER_6_15
*153 FILLER_6_27
*154 FILLER_6_29
*155 FILLER_6_3
*156 FILLER_6_41
*157 FILLER_6_53
*158 FILLER_6_65
*159 FILLER_6_77
*160 FILLER_6_83
*161 FILLER_6_85
*162 FILLER_6_97
*163 FILLER_7_15
*164 FILLER_7_27
*165 FILLER_7_3
*166 FILLER_7_39
*167 FILLER_7_51
*168 FILLER_7_55
*169 FILLER_7_57
*170 FILLER_7_69
*171 FILLER_7_81
*172 FILLER_7_93
*173 FILLER_7_99
*174 FILLER_8_15
*175 FILLER_8_27
*176 FILLER_8_29
*177 FILLER_8_3
*178 FILLER_8_41
*179 FILLER_8_53
*180 FILLER_8_65
*181 FILLER_8_77
*182 FILLER_8_83
*183 FILLER_8_85
*184 FILLER_8_97
*185 FILLER_9_15
*186 FILLER_9_27
*187 FILLER_9_3
*188 FILLER_9_39
*189 FILLER_9_51
*190 FILLER_9_55
*191 FILLER_9_57
*192 FILLER_9_69
*193 FILLER_9_81
*194 FILLER_9_93
*195 FILLER_9_99
*196 PHY_0
*197 PHY_1
*198 PHY_10
*199 PHY_11
*200 PHY_12
*201 PHY_13
*202 PHY_14
*203 PHY_15
*204 PHY_16
*205 PHY_17
*206 PHY_18
*207 PHY_19
*208 PHY_2
*209 PHY_20
*210 PHY_21
*211 PHY_22
*212 PHY_23
*213 PHY_24
*214 PHY_25
*215 PHY_26
*216 PHY_27
*217 PHY_28
*218 PHY_29
*219 PHY_3
*220 PHY_30
*221 PHY_31
*222 PHY_32
*223 PHY_33
*224 PHY_4
*225 PHY_5
*226 PHY_6
*227 PHY_7
*228 PHY_8
*229 PHY_9
*230 TAP_34
*231 TAP_35
*232 TAP_36
*233 TAP_37
*234 TAP_38
*235 TAP_39
*236 TAP_40
*237 TAP_41
*238 TAP_42
*239 TAP_43
*240 TAP_44
*241 TAP_45
*242 TAP_46
*243 TAP_47
*244 TAP_48
*245 TAP_49
*246 TAP_50
*247 TAP_51
*248 TAP_52
*249 TAP_53
*250 TAP_54
*251 TAP_55
*252 TAP_56
*253 TAP_57
*254 TAP_58
*255 TAP_59
*256 TAP_60
*257 TAP_61
*258 _1_
*259 _2_
*260 input1
*261 input2
*262 output3

*PORTS
in1 I
in2 I
out O

*D_NET *3 0.00126304
*CONN
*P in1 I
*I *260:A I *D sky130_fd_sc_hd__clkbuf_1
*CAP
1 in1 0.000631522
2 *260:A 0
3 *3:8 0.000631522
*RES
1 in1 *3:8 30.9914 
2 *3:8 *260:A 23 
*END

*D_NET *4 0.00104252
*CONN
*P in2 I
*I *261:A I *D sky130_fd_sc_hd__clkbuf_1
*CAP
1 in2 0.000521262
2 *261:A 0
3 *4:8 0.000521262
4 *4:8 *8:10 0
*RES
1 in2 *4:8 28.4643 
2 *4:8 *261:A 23 
*END

*D_NET *5 0.000588118
*CONN
*P out O
*I *262:X O *D sky130_fd_sc_hd__buf_2
*CAP
1 out 0.000294059
2 *262:X 0.000294059
*RES
1 *262:X out 48.1267 
*END

*D_NET *6 0.000208773
*CONN
*I *259:A I *D sky130_fd_sc_hd__clkbuf_1
*I *258:X O *D sky130_fd_sc_hd__and2_1
*CAP
1 *259:A 0.000104386
2 *258:X 0.000104386
*RES
1 *258:X *259:A 48.5271 
*END

*D_NET *7 0.00183553
*CONN
*I *258:B I *D sky130_fd_sc_hd__and2_1
*I *260:X O *D sky130_fd_sc_hd__clkbuf_1
*CAP
1 *258:B 0
2 *260:X 0.000379578
3 *7:11 0.000538189
4 *7:6 0.000917767
*RES
1 *260:X *7:6 48.005 
2 *7:6 *7:11 28.0293 
3 *7:11 *258:B 23 
*END

*D_NET *8 0.00268149
*CONN
*I *258:A I *D sky130_fd_sc_hd__and2_1
*I *261:X O *D sky130_fd_sc_hd__clkbuf_1
*CAP
1 *258:A 0
2 *261:X 2.56688e-05
3 *8:10 0.00131507
4 *8:7 0.00134074
5 *4:8 *8:10 0
*RES
1 *261:X *8:7 38.6214 
2 *8:7 *8:10 49.655 
3 *8:10 *258:A 23 
*END

*D_NET *9 0.00223002
*CONN
*I *262:A I *D sky130_fd_sc_hd__buf_2
*I *259:X O *D sky130_fd_sc_hd__clkbuf_1
*CAP
1 *262:A 0
2 *259:X 0.00102932
3 *9:10 8.56922e-05
4 *9:5 0.00111501
*RES
1 *259:X *9:5 47.9193 
2 *9:5 *9:10 32.2579 
3 *9:10 *262:A 23 
*END
