*SPEF "ieee 1481-1999"
*DESIGN "inverter"
*DATE "11:11:11 Fri 11 11, 1111"
*VENDOR "OpenRCX"
*PROGRAM "Parallel Extraction"
*VERSION "1.0"
*DESIGN_FLOW "NAME_SCOPE LOCAL" "PIN_CAP NONE"
*DIVIDER /
*DELIMITER :
*BUS_DELIMITER []
*T_UNIT 1 NS
*C_UNIT 1 PF
*R_UNIT 1 OHM
*L_UNIT 1 HENRY

*NAME_MAP
*3 in
*4 out
*5 net1
*6 net2
*7 FILLER_0_19
*8 FILLER_0_27
*9 FILLER_0_29
*10 FILLER_0_41
*11 FILLER_0_7
*12 FILLER_10_15
*13 FILLER_10_27
*14 FILLER_10_29
*15 FILLER_10_3
*16 FILLER_10_41
*17 FILLER_11_15
*18 FILLER_11_27
*19 FILLER_11_29
*20 FILLER_11_3
*21 FILLER_11_37
*22 FILLER_11_43
*23 FILLER_1_15
*24 FILLER_1_27
*25 FILLER_1_3
*26 FILLER_1_39
*27 FILLER_2_15
*28 FILLER_2_19
*29 FILLER_2_23
*30 FILLER_2_27
*31 FILLER_2_29
*32 FILLER_2_3
*33 FILLER_2_41
*34 FILLER_3_15
*35 FILLER_3_27
*36 FILLER_3_3
*37 FILLER_3_39
*38 FILLER_4_15
*39 FILLER_4_27
*40 FILLER_4_29
*41 FILLER_4_3
*42 FILLER_4_41
*43 FILLER_5_15
*44 FILLER_5_27
*45 FILLER_5_3
*46 FILLER_5_39
*47 FILLER_6_15
*48 FILLER_6_27
*49 FILLER_6_29
*50 FILLER_6_3
*51 FILLER_6_41
*52 FILLER_7_15
*53 FILLER_7_27
*54 FILLER_7_3
*55 FILLER_7_39
*56 FILLER_8_15
*57 FILLER_8_27
*58 FILLER_8_29
*59 FILLER_8_3
*60 FILLER_8_41
*61 FILLER_9_15
*62 FILLER_9_27
*63 FILLER_9_3
*64 FILLER_9_39
*65 PHY_0
*66 PHY_1
*67 PHY_10
*68 PHY_11
*69 PHY_12
*70 PHY_13
*71 PHY_14
*72 PHY_15
*73 PHY_16
*74 PHY_17
*75 PHY_18
*76 PHY_19
*77 PHY_2
*78 PHY_20
*79 PHY_21
*80 PHY_22
*81 PHY_23
*82 PHY_3
*83 PHY_4
*84 PHY_5
*85 PHY_6
*86 PHY_7
*87 PHY_8
*88 PHY_9
*89 TAP_24
*90 TAP_25
*91 TAP_26
*92 TAP_27
*93 TAP_28
*94 TAP_29
*95 TAP_30
*96 _0_
*97 input1
*98 output2

*PORTS
in I
out O

*D_NET *3 0.00135589
*CONN
*P in I
*I *97:A I *D sky130_fd_sc_hd__clkbuf_1
*CAP
1 in 0.000677943
2 *97:A 0.000677943
*RES
1 in *97:A 28.6036 
*END

*D_NET *4 0.00124892
*CONN
*P out O
*I *98:X O *D sky130_fd_sc_hd__buf_2
*CAP
1 out 0.00062446
2 *98:X 0.00062446
*RES
1 *98:X out 27.3893 
*END

*D_NET *5 0.00262871
*CONN
*I *96:A I *D sky130_fd_sc_hd__inv_2
*I *97:X O *D sky130_fd_sc_hd__clkbuf_1
*CAP
1 *96:A 0
2 *97:X 0.00131436
3 *5:9 0.00131436
*RES
1 *97:X *5:9 47.4964 
2 *5:9 *96:A 9.3 
*END

*D_NET *6 0.000987366
*CONN
*I *98:A I *D sky130_fd_sc_hd__buf_2
*I *96:Y O *D sky130_fd_sc_hd__inv_2
*CAP
1 *98:A 0.000493683
2 *96:Y 0.000493683
*RES
1 *96:Y *98:A 38.2607 
*END
