*SPEF "ieee 1481-1999"
*DESIGN "nor_gate"
*DATE "11:11:11 Fri 11 11, 1111"
*VENDOR "OpenRCX"
*PROGRAM "Parallel Extraction"
*VERSION "1.0"
*DESIGN_FLOW "NAME_SCOPE LOCAL" "PIN_CAP NONE"
*DIVIDER /
*DELIMITER :
*BUS_DELIMITER []
*T_UNIT 1 NS
*C_UNIT 1 PF
*R_UNIT 1 OHM
*L_UNIT 1 HENRY

*NAME_MAP
*3 in1
*4 in2
*5 out
*6 net1
*7 net2
*8 net3
*9 FILLER_0_18
*10 FILLER_0_26
*11 FILLER_0_29
*12 FILLER_0_41
*13 FILLER_0_53
*14 FILLER_0_57
*15 FILLER_0_6
*16 FILLER_0_69
*17 FILLER_10_15
*18 FILLER_10_27
*19 FILLER_10_29
*20 FILLER_10_3
*21 FILLER_10_41
*22 FILLER_10_53
*23 FILLER_10_65
*24 FILLER_11_15
*25 FILLER_11_27
*26 FILLER_11_3
*27 FILLER_11_39
*28 FILLER_11_51
*29 FILLER_11_55
*30 FILLER_11_57
*31 FILLER_11_69
*32 FILLER_12_15
*33 FILLER_12_20
*34 FILLER_12_29
*35 FILLER_12_3
*36 FILLER_12_41
*37 FILLER_12_53
*38 FILLER_12_57
*39 FILLER_12_69
*40 FILLER_1_15
*41 FILLER_1_27
*42 FILLER_1_3
*43 FILLER_1_39
*44 FILLER_1_51
*45 FILLER_1_55
*46 FILLER_1_57
*47 FILLER_1_69
*48 FILLER_2_15
*49 FILLER_2_27
*50 FILLER_2_29
*51 FILLER_2_3
*52 FILLER_2_41
*53 FILLER_2_53
*54 FILLER_2_65
*55 FILLER_3_15
*56 FILLER_3_19
*57 FILLER_3_3
*58 FILLER_3_31
*59 FILLER_3_43
*60 FILLER_3_55
*61 FILLER_3_57
*62 FILLER_3_69
*63 FILLER_4_15
*64 FILLER_4_27
*65 FILLER_4_29
*66 FILLER_4_3
*67 FILLER_4_41
*68 FILLER_4_53
*69 FILLER_4_69
*70 FILLER_5_15
*71 FILLER_5_27
*72 FILLER_5_3
*73 FILLER_5_39
*74 FILLER_5_51
*75 FILLER_5_55
*76 FILLER_5_57
*77 FILLER_5_69
*78 FILLER_6_15
*79 FILLER_6_27
*80 FILLER_6_29
*81 FILLER_6_3
*82 FILLER_6_41
*83 FILLER_6_53
*84 FILLER_6_65
*85 FILLER_7_15
*86 FILLER_7_27
*87 FILLER_7_3
*88 FILLER_7_39
*89 FILLER_7_51
*90 FILLER_7_55
*91 FILLER_7_57
*92 FILLER_7_69
*93 FILLER_8_15
*94 FILLER_8_27
*95 FILLER_8_29
*96 FILLER_8_3
*97 FILLER_8_41
*98 FILLER_8_53
*99 FILLER_8_65
*100 FILLER_9_15
*101 FILLER_9_27
*102 FILLER_9_3
*103 FILLER_9_39
*104 FILLER_9_51
*105 FILLER_9_55
*106 FILLER_9_57
*107 FILLER_9_69
*108 PHY_0
*109 PHY_1
*110 PHY_10
*111 PHY_11
*112 PHY_12
*113 PHY_13
*114 PHY_14
*115 PHY_15
*116 PHY_16
*117 PHY_17
*118 PHY_18
*119 PHY_19
*120 PHY_2
*121 PHY_20
*122 PHY_21
*123 PHY_22
*124 PHY_23
*125 PHY_24
*126 PHY_25
*127 PHY_3
*128 PHY_4
*129 PHY_5
*130 PHY_6
*131 PHY_7
*132 PHY_8
*133 PHY_9
*134 TAP_26
*135 TAP_27
*136 TAP_28
*137 TAP_29
*138 TAP_30
*139 TAP_31
*140 TAP_32
*141 TAP_33
*142 TAP_34
*143 TAP_35
*144 TAP_36
*145 TAP_37
*146 TAP_38
*147 TAP_39
*148 TAP_40
*149 _0_
*150 input1
*151 input2
*152 output3

*PORTS
in1 I
in2 I
out O

*D_NET *3 0.00126304
*CONN
*P in1 I
*I *150:A I *D sky130_fd_sc_hd__clkbuf_1
*CAP
1 in1 0.000631522
2 *150:A 0.000631522
*RES
1 in1 *150:A 27.5857 
*END

*D_NET *4 0.000738606
*CONN
*P in2 I
*I *151:A I *D sky130_fd_sc_hd__clkbuf_1
*CAP
1 in2 0.000369303
2 *151:A 0.000369303
*RES
1 in2 *151:A 22.1393 
*END

*D_NET *5 0.000681361
*CONN
*P out O
*I *152:X O *D sky130_fd_sc_hd__buf_2
*CAP
1 out 0.00034068
2 *152:X 0.00034068
*RES
1 *152:X out 19.6975 
*END

*D_NET *6 0.00104387
*CONN
*I *149:B I *D sky130_fd_sc_hd__nor2_1
*I *150:X O *D sky130_fd_sc_hd__clkbuf_1
*CAP
1 *149:B 0.000521933
2 *150:X 0.000521933
*RES
1 *150:X *149:B 39.0464 
*END

*D_NET *7 0.00207554
*CONN
*I *149:A I *D sky130_fd_sc_hd__nor2_1
*I *151:X O *D sky130_fd_sc_hd__clkbuf_1
*CAP
1 *149:A 0
2 *151:X 0.00103777
3 *7:11 0.00103777
*RES
1 *151:X *7:11 41.675 
2 *7:11 *149:A 9.3 
*END

*D_NET *8 0.00212591
*CONN
*I *152:A I *D sky130_fd_sc_hd__buf_2
*I *149:Y O *D sky130_fd_sc_hd__nor2_1
*CAP
1 *152:A 0.00106296
2 *149:Y 0.00106296
*RES
1 *149:Y *152:A 49.9929 
*END
