*SPEF "ieee 1481-1999"
*DESIGN "multiplexer"
*DATE "11:11:11 Fri 11 11, 1111"
*VENDOR "OpenRCX"
*PROGRAM "Parallel Extraction"
*VERSION "1.0"
*DESIGN_FLOW "NAME_SCOPE LOCAL" "PIN_CAP NONE"
*DIVIDER /
*DELIMITER :
*BUS_DELIMITER []
*T_UNIT 1 NS
*C_UNIT 1 PF
*R_UNIT 1 OHM
*L_UNIT 1 HENRY

*NAME_MAP
*3 in[0]
*4 in[1]
*5 in[2]
*6 in[3]
*7 in[4]
*8 in[5]
*9 in[6]
*10 in[7]
*11 out
*12 sel[0]
*13 sel[1]
*14 sel[2]
*15 _0_
*16 _1_
*17 _2_
*18 net1
*19 net10
*20 net11
*21 net12
*22 net2
*23 net3
*24 net4
*25 net5
*26 net6
*27 net7
*28 net8
*29 net9
*30 FILLER_0_109
*31 FILLER_0_113
*32 FILLER_0_125
*33 FILLER_0_137
*34 FILLER_0_141
*35 FILLER_0_153
*36 FILLER_0_165
*37 FILLER_0_172
*38 FILLER_0_18
*39 FILLER_0_184
*40 FILLER_0_197
*41 FILLER_0_209
*42 FILLER_0_221
*43 FILLER_0_225
*44 FILLER_0_231
*45 FILLER_0_26
*46 FILLER_0_29
*47 FILLER_0_41
*48 FILLER_0_53
*49 FILLER_0_57
*50 FILLER_0_6
*51 FILLER_0_69
*52 FILLER_0_77
*53 FILLER_0_83
*54 FILLER_0_85
*55 FILLER_0_97
*56 FILLER_10_109
*57 FILLER_10_121
*58 FILLER_10_133
*59 FILLER_10_139
*60 FILLER_10_141
*61 FILLER_10_15
*62 FILLER_10_153
*63 FILLER_10_165
*64 FILLER_10_177
*65 FILLER_10_189
*66 FILLER_10_195
*67 FILLER_10_197
*68 FILLER_10_209
*69 FILLER_10_221
*70 FILLER_10_233
*71 FILLER_10_27
*72 FILLER_10_29
*73 FILLER_10_3
*74 FILLER_10_41
*75 FILLER_10_53
*76 FILLER_10_65
*77 FILLER_10_77
*78 FILLER_10_83
*79 FILLER_10_85
*80 FILLER_10_97
*81 FILLER_11_105
*82 FILLER_11_111
*83 FILLER_11_113
*84 FILLER_11_125
*85 FILLER_11_137
*86 FILLER_11_149
*87 FILLER_11_161
*88 FILLER_11_167
*89 FILLER_11_169
*90 FILLER_11_18
*91 FILLER_11_181
*92 FILLER_11_193
*93 FILLER_11_205
*94 FILLER_11_217
*95 FILLER_11_223
*96 FILLER_11_225
*97 FILLER_11_233
*98 FILLER_11_30
*99 FILLER_11_42
*100 FILLER_11_54
*101 FILLER_11_57
*102 FILLER_11_6
*103 FILLER_11_69
*104 FILLER_11_81
*105 FILLER_11_93
*106 FILLER_12_109
*107 FILLER_12_121
*108 FILLER_12_133
*109 FILLER_12_139
*110 FILLER_12_141
*111 FILLER_12_15
*112 FILLER_12_153
*113 FILLER_12_165
*114 FILLER_12_177
*115 FILLER_12_189
*116 FILLER_12_195
*117 FILLER_12_197
*118 FILLER_12_209
*119 FILLER_12_221
*120 FILLER_12_227
*121 FILLER_12_231
*122 FILLER_12_27
*123 FILLER_12_29
*124 FILLER_12_3
*125 FILLER_12_41
*126 FILLER_12_53
*127 FILLER_12_65
*128 FILLER_12_77
*129 FILLER_12_83
*130 FILLER_12_85
*131 FILLER_12_97
*132 FILLER_13_105
*133 FILLER_13_111
*134 FILLER_13_113
*135 FILLER_13_125
*136 FILLER_13_137
*137 FILLER_13_149
*138 FILLER_13_15
*139 FILLER_13_161
*140 FILLER_13_167
*141 FILLER_13_169
*142 FILLER_13_181
*143 FILLER_13_193
*144 FILLER_13_205
*145 FILLER_13_217
*146 FILLER_13_223
*147 FILLER_13_225
*148 FILLER_13_233
*149 FILLER_13_27
*150 FILLER_13_3
*151 FILLER_13_39
*152 FILLER_13_51
*153 FILLER_13_55
*154 FILLER_13_57
*155 FILLER_13_69
*156 FILLER_13_81
*157 FILLER_13_93
*158 FILLER_14_109
*159 FILLER_14_121
*160 FILLER_14_133
*161 FILLER_14_139
*162 FILLER_14_141
*163 FILLER_14_15
*164 FILLER_14_153
*165 FILLER_14_165
*166 FILLER_14_177
*167 FILLER_14_189
*168 FILLER_14_195
*169 FILLER_14_197
*170 FILLER_14_209
*171 FILLER_14_221
*172 FILLER_14_233
*173 FILLER_14_27
*174 FILLER_14_29
*175 FILLER_14_3
*176 FILLER_14_41
*177 FILLER_14_53
*178 FILLER_14_65
*179 FILLER_14_77
*180 FILLER_14_83
*181 FILLER_14_85
*182 FILLER_14_97
*183 FILLER_15_105
*184 FILLER_15_111
*185 FILLER_15_113
*186 FILLER_15_125
*187 FILLER_15_137
*188 FILLER_15_149
*189 FILLER_15_15
*190 FILLER_15_161
*191 FILLER_15_167
*192 FILLER_15_169
*193 FILLER_15_181
*194 FILLER_15_193
*195 FILLER_15_205
*196 FILLER_15_217
*197 FILLER_15_223
*198 FILLER_15_225
*199 FILLER_15_233
*200 FILLER_15_27
*201 FILLER_15_3
*202 FILLER_15_39
*203 FILLER_15_51
*204 FILLER_15_55
*205 FILLER_15_57
*206 FILLER_15_69
*207 FILLER_15_81
*208 FILLER_15_93
*209 FILLER_16_109
*210 FILLER_16_121
*211 FILLER_16_133
*212 FILLER_16_139
*213 FILLER_16_141
*214 FILLER_16_15
*215 FILLER_16_153
*216 FILLER_16_165
*217 FILLER_16_177
*218 FILLER_16_189
*219 FILLER_16_195
*220 FILLER_16_197
*221 FILLER_16_209
*222 FILLER_16_221
*223 FILLER_16_233
*224 FILLER_16_27
*225 FILLER_16_29
*226 FILLER_16_3
*227 FILLER_16_41
*228 FILLER_16_53
*229 FILLER_16_65
*230 FILLER_16_77
*231 FILLER_16_83
*232 FILLER_16_85
*233 FILLER_16_97
*234 FILLER_17_105
*235 FILLER_17_111
*236 FILLER_17_113
*237 FILLER_17_125
*238 FILLER_17_137
*239 FILLER_17_149
*240 FILLER_17_15
*241 FILLER_17_161
*242 FILLER_17_167
*243 FILLER_17_169
*244 FILLER_17_181
*245 FILLER_17_193
*246 FILLER_17_205
*247 FILLER_17_217
*248 FILLER_17_223
*249 FILLER_17_225
*250 FILLER_17_233
*251 FILLER_17_27
*252 FILLER_17_3
*253 FILLER_17_39
*254 FILLER_17_51
*255 FILLER_17_55
*256 FILLER_17_57
*257 FILLER_17_69
*258 FILLER_17_81
*259 FILLER_17_93
*260 FILLER_18_109
*261 FILLER_18_115
*262 FILLER_18_128
*263 FILLER_18_141
*264 FILLER_18_15
*265 FILLER_18_153
*266 FILLER_18_165
*267 FILLER_18_177
*268 FILLER_18_189
*269 FILLER_18_195
*270 FILLER_18_197
*271 FILLER_18_209
*272 FILLER_18_221
*273 FILLER_18_233
*274 FILLER_18_27
*275 FILLER_18_29
*276 FILLER_18_3
*277 FILLER_18_41
*278 FILLER_18_53
*279 FILLER_18_65
*280 FILLER_18_77
*281 FILLER_18_83
*282 FILLER_18_85
*283 FILLER_18_97
*284 FILLER_19_105
*285 FILLER_19_111
*286 FILLER_19_113
*287 FILLER_19_121
*288 FILLER_19_144
*289 FILLER_19_15
*290 FILLER_19_156
*291 FILLER_19_169
*292 FILLER_19_181
*293 FILLER_19_193
*294 FILLER_19_205
*295 FILLER_19_217
*296 FILLER_19_223
*297 FILLER_19_225
*298 FILLER_19_233
*299 FILLER_19_27
*300 FILLER_19_3
*301 FILLER_19_39
*302 FILLER_19_51
*303 FILLER_19_55
*304 FILLER_19_57
*305 FILLER_19_69
*306 FILLER_19_81
*307 FILLER_19_93
*308 FILLER_1_105
*309 FILLER_1_111
*310 FILLER_1_113
*311 FILLER_1_125
*312 FILLER_1_137
*313 FILLER_1_149
*314 FILLER_1_15
*315 FILLER_1_161
*316 FILLER_1_167
*317 FILLER_1_169
*318 FILLER_1_181
*319 FILLER_1_193
*320 FILLER_1_205
*321 FILLER_1_217
*322 FILLER_1_223
*323 FILLER_1_225
*324 FILLER_1_233
*325 FILLER_1_27
*326 FILLER_1_3
*327 FILLER_1_39
*328 FILLER_1_51
*329 FILLER_1_55
*330 FILLER_1_57
*331 FILLER_1_69
*332 FILLER_1_81
*333 FILLER_1_93
*334 FILLER_20_112
*335 FILLER_20_124
*336 FILLER_20_136
*337 FILLER_20_141
*338 FILLER_20_15
*339 FILLER_20_153
*340 FILLER_20_165
*341 FILLER_20_177
*342 FILLER_20_189
*343 FILLER_20_195
*344 FILLER_20_197
*345 FILLER_20_209
*346 FILLER_20_221
*347 FILLER_20_233
*348 FILLER_20_27
*349 FILLER_20_29
*350 FILLER_20_3
*351 FILLER_20_41
*352 FILLER_20_53
*353 FILLER_20_65
*354 FILLER_20_77
*355 FILLER_20_83
*356 FILLER_20_85
*357 FILLER_21_105
*358 FILLER_21_111
*359 FILLER_21_113
*360 FILLER_21_125
*361 FILLER_21_137
*362 FILLER_21_149
*363 FILLER_21_15
*364 FILLER_21_161
*365 FILLER_21_167
*366 FILLER_21_169
*367 FILLER_21_181
*368 FILLER_21_193
*369 FILLER_21_205
*370 FILLER_21_217
*371 FILLER_21_223
*372 FILLER_21_225
*373 FILLER_21_233
*374 FILLER_21_27
*375 FILLER_21_3
*376 FILLER_21_39
*377 FILLER_21_51
*378 FILLER_21_55
*379 FILLER_21_57
*380 FILLER_21_69
*381 FILLER_21_81
*382 FILLER_21_93
*383 FILLER_22_109
*384 FILLER_22_121
*385 FILLER_22_133
*386 FILLER_22_139
*387 FILLER_22_141
*388 FILLER_22_15
*389 FILLER_22_153
*390 FILLER_22_165
*391 FILLER_22_177
*392 FILLER_22_189
*393 FILLER_22_195
*394 FILLER_22_197
*395 FILLER_22_209
*396 FILLER_22_221
*397 FILLER_22_233
*398 FILLER_22_27
*399 FILLER_22_29
*400 FILLER_22_3
*401 FILLER_22_41
*402 FILLER_22_53
*403 FILLER_22_65
*404 FILLER_22_77
*405 FILLER_22_83
*406 FILLER_22_85
*407 FILLER_22_97
*408 FILLER_23_105
*409 FILLER_23_111
*410 FILLER_23_113
*411 FILLER_23_125
*412 FILLER_23_137
*413 FILLER_23_149
*414 FILLER_23_15
*415 FILLER_23_161
*416 FILLER_23_167
*417 FILLER_23_169
*418 FILLER_23_181
*419 FILLER_23_193
*420 FILLER_23_205
*421 FILLER_23_217
*422 FILLER_23_223
*423 FILLER_23_225
*424 FILLER_23_233
*425 FILLER_23_27
*426 FILLER_23_3
*427 FILLER_23_39
*428 FILLER_23_51
*429 FILLER_23_55
*430 FILLER_23_57
*431 FILLER_23_69
*432 FILLER_23_81
*433 FILLER_23_93
*434 FILLER_24_109
*435 FILLER_24_121
*436 FILLER_24_133
*437 FILLER_24_139
*438 FILLER_24_141
*439 FILLER_24_15
*440 FILLER_24_153
*441 FILLER_24_165
*442 FILLER_24_177
*443 FILLER_24_189
*444 FILLER_24_195
*445 FILLER_24_197
*446 FILLER_24_209
*447 FILLER_24_221
*448 FILLER_24_233
*449 FILLER_24_27
*450 FILLER_24_29
*451 FILLER_24_3
*452 FILLER_24_41
*453 FILLER_24_53
*454 FILLER_24_65
*455 FILLER_24_77
*456 FILLER_24_83
*457 FILLER_24_85
*458 FILLER_24_97
*459 FILLER_25_105
*460 FILLER_25_111
*461 FILLER_25_113
*462 FILLER_25_125
*463 FILLER_25_137
*464 FILLER_25_149
*465 FILLER_25_15
*466 FILLER_25_161
*467 FILLER_25_167
*468 FILLER_25_169
*469 FILLER_25_181
*470 FILLER_25_193
*471 FILLER_25_205
*472 FILLER_25_217
*473 FILLER_25_223
*474 FILLER_25_225
*475 FILLER_25_233
*476 FILLER_25_27
*477 FILLER_25_3
*478 FILLER_25_39
*479 FILLER_25_51
*480 FILLER_25_55
*481 FILLER_25_57
*482 FILLER_25_69
*483 FILLER_25_81
*484 FILLER_25_93
*485 FILLER_26_109
*486 FILLER_26_121
*487 FILLER_26_133
*488 FILLER_26_139
*489 FILLER_26_141
*490 FILLER_26_15
*491 FILLER_26_153
*492 FILLER_26_165
*493 FILLER_26_177
*494 FILLER_26_189
*495 FILLER_26_195
*496 FILLER_26_197
*497 FILLER_26_209
*498 FILLER_26_221
*499 FILLER_26_233
*500 FILLER_26_27
*501 FILLER_26_29
*502 FILLER_26_3
*503 FILLER_26_41
*504 FILLER_26_53
*505 FILLER_26_65
*506 FILLER_26_77
*507 FILLER_26_83
*508 FILLER_26_85
*509 FILLER_26_97
*510 FILLER_27_105
*511 FILLER_27_111
*512 FILLER_27_113
*513 FILLER_27_125
*514 FILLER_27_137
*515 FILLER_27_149
*516 FILLER_27_161
*517 FILLER_27_167
*518 FILLER_27_169
*519 FILLER_27_18
*520 FILLER_27_181
*521 FILLER_27_193
*522 FILLER_27_205
*523 FILLER_27_217
*524 FILLER_27_223
*525 FILLER_27_225
*526 FILLER_27_233
*527 FILLER_27_30
*528 FILLER_27_42
*529 FILLER_27_54
*530 FILLER_27_57
*531 FILLER_27_6
*532 FILLER_27_69
*533 FILLER_27_81
*534 FILLER_27_93
*535 FILLER_28_109
*536 FILLER_28_121
*537 FILLER_28_133
*538 FILLER_28_139
*539 FILLER_28_141
*540 FILLER_28_15
*541 FILLER_28_153
*542 FILLER_28_165
*543 FILLER_28_177
*544 FILLER_28_189
*545 FILLER_28_195
*546 FILLER_28_197
*547 FILLER_28_209
*548 FILLER_28_221
*549 FILLER_28_233
*550 FILLER_28_27
*551 FILLER_28_29
*552 FILLER_28_3
*553 FILLER_28_41
*554 FILLER_28_53
*555 FILLER_28_65
*556 FILLER_28_77
*557 FILLER_28_83
*558 FILLER_28_85
*559 FILLER_28_97
*560 FILLER_29_105
*561 FILLER_29_111
*562 FILLER_29_113
*563 FILLER_29_125
*564 FILLER_29_137
*565 FILLER_29_149
*566 FILLER_29_15
*567 FILLER_29_161
*568 FILLER_29_167
*569 FILLER_29_169
*570 FILLER_29_181
*571 FILLER_29_193
*572 FILLER_29_205
*573 FILLER_29_217
*574 FILLER_29_223
*575 FILLER_29_225
*576 FILLER_29_231
*577 FILLER_29_27
*578 FILLER_29_3
*579 FILLER_29_39
*580 FILLER_29_51
*581 FILLER_29_55
*582 FILLER_29_57
*583 FILLER_29_69
*584 FILLER_29_81
*585 FILLER_29_93
*586 FILLER_2_109
*587 FILLER_2_121
*588 FILLER_2_133
*589 FILLER_2_139
*590 FILLER_2_141
*591 FILLER_2_15
*592 FILLER_2_153
*593 FILLER_2_165
*594 FILLER_2_177
*595 FILLER_2_189
*596 FILLER_2_195
*597 FILLER_2_197
*598 FILLER_2_209
*599 FILLER_2_221
*600 FILLER_2_233
*601 FILLER_2_27
*602 FILLER_2_29
*603 FILLER_2_3
*604 FILLER_2_41
*605 FILLER_2_53
*606 FILLER_2_65
*607 FILLER_2_77
*608 FILLER_2_83
*609 FILLER_2_85
*610 FILLER_2_97
*611 FILLER_30_109
*612 FILLER_30_121
*613 FILLER_30_133
*614 FILLER_30_139
*615 FILLER_30_141
*616 FILLER_30_15
*617 FILLER_30_153
*618 FILLER_30_165
*619 FILLER_30_177
*620 FILLER_30_189
*621 FILLER_30_195
*622 FILLER_30_197
*623 FILLER_30_209
*624 FILLER_30_221
*625 FILLER_30_233
*626 FILLER_30_27
*627 FILLER_30_29
*628 FILLER_30_3
*629 FILLER_30_41
*630 FILLER_30_53
*631 FILLER_30_65
*632 FILLER_30_77
*633 FILLER_30_83
*634 FILLER_30_85
*635 FILLER_30_97
*636 FILLER_31_105
*637 FILLER_31_111
*638 FILLER_31_113
*639 FILLER_31_125
*640 FILLER_31_137
*641 FILLER_31_149
*642 FILLER_31_15
*643 FILLER_31_161
*644 FILLER_31_167
*645 FILLER_31_169
*646 FILLER_31_181
*647 FILLER_31_193
*648 FILLER_31_205
*649 FILLER_31_217
*650 FILLER_31_223
*651 FILLER_31_225
*652 FILLER_31_233
*653 FILLER_31_27
*654 FILLER_31_3
*655 FILLER_31_39
*656 FILLER_31_51
*657 FILLER_31_55
*658 FILLER_31_57
*659 FILLER_31_69
*660 FILLER_31_81
*661 FILLER_31_93
*662 FILLER_32_109
*663 FILLER_32_121
*664 FILLER_32_133
*665 FILLER_32_139
*666 FILLER_32_141
*667 FILLER_32_15
*668 FILLER_32_153
*669 FILLER_32_165
*670 FILLER_32_177
*671 FILLER_32_189
*672 FILLER_32_195
*673 FILLER_32_197
*674 FILLER_32_209
*675 FILLER_32_221
*676 FILLER_32_233
*677 FILLER_32_27
*678 FILLER_32_29
*679 FILLER_32_3
*680 FILLER_32_41
*681 FILLER_32_53
*682 FILLER_32_65
*683 FILLER_32_77
*684 FILLER_32_83
*685 FILLER_32_85
*686 FILLER_32_97
*687 FILLER_33_105
*688 FILLER_33_111
*689 FILLER_33_113
*690 FILLER_33_125
*691 FILLER_33_137
*692 FILLER_33_149
*693 FILLER_33_15
*694 FILLER_33_161
*695 FILLER_33_167
*696 FILLER_33_169
*697 FILLER_33_181
*698 FILLER_33_193
*699 FILLER_33_205
*700 FILLER_33_217
*701 FILLER_33_223
*702 FILLER_33_225
*703 FILLER_33_233
*704 FILLER_33_27
*705 FILLER_33_3
*706 FILLER_33_39
*707 FILLER_33_51
*708 FILLER_33_55
*709 FILLER_33_57
*710 FILLER_33_69
*711 FILLER_33_81
*712 FILLER_33_93
*713 FILLER_34_109
*714 FILLER_34_121
*715 FILLER_34_133
*716 FILLER_34_139
*717 FILLER_34_141
*718 FILLER_34_15
*719 FILLER_34_153
*720 FILLER_34_165
*721 FILLER_34_177
*722 FILLER_34_189
*723 FILLER_34_195
*724 FILLER_34_197
*725 FILLER_34_209
*726 FILLER_34_221
*727 FILLER_34_233
*728 FILLER_34_27
*729 FILLER_34_29
*730 FILLER_34_3
*731 FILLER_34_41
*732 FILLER_34_53
*733 FILLER_34_65
*734 FILLER_34_77
*735 FILLER_34_83
*736 FILLER_34_85
*737 FILLER_34_97
*738 FILLER_35_105
*739 FILLER_35_111
*740 FILLER_35_113
*741 FILLER_35_125
*742 FILLER_35_137
*743 FILLER_35_149
*744 FILLER_35_15
*745 FILLER_35_161
*746 FILLER_35_167
*747 FILLER_35_169
*748 FILLER_35_181
*749 FILLER_35_193
*750 FILLER_35_205
*751 FILLER_35_217
*752 FILLER_35_223
*753 FILLER_35_225
*754 FILLER_35_233
*755 FILLER_35_27
*756 FILLER_35_3
*757 FILLER_35_39
*758 FILLER_35_51
*759 FILLER_35_55
*760 FILLER_35_57
*761 FILLER_35_69
*762 FILLER_35_81
*763 FILLER_35_93
*764 FILLER_36_109
*765 FILLER_36_121
*766 FILLER_36_133
*767 FILLER_36_139
*768 FILLER_36_141
*769 FILLER_36_15
*770 FILLER_36_153
*771 FILLER_36_165
*772 FILLER_36_177
*773 FILLER_36_189
*774 FILLER_36_195
*775 FILLER_36_197
*776 FILLER_36_209
*777 FILLER_36_221
*778 FILLER_36_233
*779 FILLER_36_27
*780 FILLER_36_29
*781 FILLER_36_3
*782 FILLER_36_41
*783 FILLER_36_53
*784 FILLER_36_65
*785 FILLER_36_77
*786 FILLER_36_83
*787 FILLER_36_85
*788 FILLER_36_97
*789 FILLER_37_105
*790 FILLER_37_111
*791 FILLER_37_113
*792 FILLER_37_125
*793 FILLER_37_137
*794 FILLER_37_149
*795 FILLER_37_15
*796 FILLER_37_161
*797 FILLER_37_167
*798 FILLER_37_169
*799 FILLER_37_181
*800 FILLER_37_193
*801 FILLER_37_205
*802 FILLER_37_217
*803 FILLER_37_223
*804 FILLER_37_225
*805 FILLER_37_233
*806 FILLER_37_27
*807 FILLER_37_3
*808 FILLER_37_39
*809 FILLER_37_51
*810 FILLER_37_55
*811 FILLER_37_57
*812 FILLER_37_69
*813 FILLER_37_81
*814 FILLER_37_93
*815 FILLER_38_109
*816 FILLER_38_121
*817 FILLER_38_133
*818 FILLER_38_139
*819 FILLER_38_141
*820 FILLER_38_15
*821 FILLER_38_153
*822 FILLER_38_165
*823 FILLER_38_177
*824 FILLER_38_189
*825 FILLER_38_195
*826 FILLER_38_197
*827 FILLER_38_209
*828 FILLER_38_221
*829 FILLER_38_233
*830 FILLER_38_27
*831 FILLER_38_29
*832 FILLER_38_3
*833 FILLER_38_41
*834 FILLER_38_53
*835 FILLER_38_65
*836 FILLER_38_77
*837 FILLER_38_83
*838 FILLER_38_85
*839 FILLER_38_97
*840 FILLER_39_109
*841 FILLER_39_113
*842 FILLER_39_125
*843 FILLER_39_13
*844 FILLER_39_137
*845 FILLER_39_141
*846 FILLER_39_153
*847 FILLER_39_165
*848 FILLER_39_172
*849 FILLER_39_184
*850 FILLER_39_197
*851 FILLER_39_209
*852 FILLER_39_221
*853 FILLER_39_225
*854 FILLER_39_231
*855 FILLER_39_25
*856 FILLER_39_29
*857 FILLER_39_41
*858 FILLER_39_53
*859 FILLER_39_57
*860 FILLER_39_69
*861 FILLER_39_76
*862 FILLER_39_85
*863 FILLER_39_97
*864 FILLER_3_105
*865 FILLER_3_111
*866 FILLER_3_113
*867 FILLER_3_125
*868 FILLER_3_137
*869 FILLER_3_149
*870 FILLER_3_15
*871 FILLER_3_161
*872 FILLER_3_167
*873 FILLER_3_169
*874 FILLER_3_181
*875 FILLER_3_193
*876 FILLER_3_205
*877 FILLER_3_217
*878 FILLER_3_223
*879 FILLER_3_225
*880 FILLER_3_233
*881 FILLER_3_27
*882 FILLER_3_3
*883 FILLER_3_39
*884 FILLER_3_51
*885 FILLER_3_55
*886 FILLER_3_57
*887 FILLER_3_69
*888 FILLER_3_81
*889 FILLER_3_93
*890 FILLER_4_109
*891 FILLER_4_121
*892 FILLER_4_133
*893 FILLER_4_139
*894 FILLER_4_141
*895 FILLER_4_15
*896 FILLER_4_153
*897 FILLER_4_165
*898 FILLER_4_177
*899 FILLER_4_189
*900 FILLER_4_195
*901 FILLER_4_197
*902 FILLER_4_209
*903 FILLER_4_221
*904 FILLER_4_233
*905 FILLER_4_27
*906 FILLER_4_29
*907 FILLER_4_3
*908 FILLER_4_41
*909 FILLER_4_53
*910 FILLER_4_65
*911 FILLER_4_77
*912 FILLER_4_83
*913 FILLER_4_85
*914 FILLER_4_97
*915 FILLER_5_105
*916 FILLER_5_111
*917 FILLER_5_113
*918 FILLER_5_125
*919 FILLER_5_137
*920 FILLER_5_149
*921 FILLER_5_15
*922 FILLER_5_161
*923 FILLER_5_167
*924 FILLER_5_169
*925 FILLER_5_181
*926 FILLER_5_193
*927 FILLER_5_205
*928 FILLER_5_217
*929 FILLER_5_223
*930 FILLER_5_225
*931 FILLER_5_233
*932 FILLER_5_27
*933 FILLER_5_3
*934 FILLER_5_39
*935 FILLER_5_51
*936 FILLER_5_55
*937 FILLER_5_57
*938 FILLER_5_69
*939 FILLER_5_81
*940 FILLER_5_93
*941 FILLER_6_109
*942 FILLER_6_121
*943 FILLER_6_133
*944 FILLER_6_139
*945 FILLER_6_141
*946 FILLER_6_15
*947 FILLER_6_153
*948 FILLER_6_165
*949 FILLER_6_177
*950 FILLER_6_189
*951 FILLER_6_195
*952 FILLER_6_197
*953 FILLER_6_209
*954 FILLER_6_221
*955 FILLER_6_233
*956 FILLER_6_27
*957 FILLER_6_29
*958 FILLER_6_3
*959 FILLER_6_41
*960 FILLER_6_53
*961 FILLER_6_65
*962 FILLER_6_77
*963 FILLER_6_83
*964 FILLER_6_85
*965 FILLER_6_97
*966 FILLER_7_105
*967 FILLER_7_111
*968 FILLER_7_113
*969 FILLER_7_125
*970 FILLER_7_137
*971 FILLER_7_149
*972 FILLER_7_15
*973 FILLER_7_161
*974 FILLER_7_167
*975 FILLER_7_169
*976 FILLER_7_181
*977 FILLER_7_193
*978 FILLER_7_205
*979 FILLER_7_217
*980 FILLER_7_223
*981 FILLER_7_225
*982 FILLER_7_233
*983 FILLER_7_27
*984 FILLER_7_3
*985 FILLER_7_39
*986 FILLER_7_51
*987 FILLER_7_55
*988 FILLER_7_57
*989 FILLER_7_69
*990 FILLER_7_81
*991 FILLER_7_93
*992 FILLER_8_109
*993 FILLER_8_121
*994 FILLER_8_133
*995 FILLER_8_139
*996 FILLER_8_141
*997 FILLER_8_15
*998 FILLER_8_153
*999 FILLER_8_165
*1000 FILLER_8_177
*1001 FILLER_8_189
*1002 FILLER_8_195
*1003 FILLER_8_197
*1004 FILLER_8_209
*1005 FILLER_8_221
*1006 FILLER_8_233
*1007 FILLER_8_27
*1008 FILLER_8_29
*1009 FILLER_8_3
*1010 FILLER_8_41
*1011 FILLER_8_53
*1012 FILLER_8_65
*1013 FILLER_8_77
*1014 FILLER_8_83
*1015 FILLER_8_85
*1016 FILLER_8_97
*1017 FILLER_9_105
*1018 FILLER_9_111
*1019 FILLER_9_113
*1020 FILLER_9_125
*1021 FILLER_9_137
*1022 FILLER_9_149
*1023 FILLER_9_15
*1024 FILLER_9_161
*1025 FILLER_9_167
*1026 FILLER_9_169
*1027 FILLER_9_181
*1028 FILLER_9_193
*1029 FILLER_9_205
*1030 FILLER_9_217
*1031 FILLER_9_223
*1032 FILLER_9_225
*1033 FILLER_9_233
*1034 FILLER_9_27
*1035 FILLER_9_3
*1036 FILLER_9_39
*1037 FILLER_9_51
*1038 FILLER_9_55
*1039 FILLER_9_57
*1040 FILLER_9_69
*1041 FILLER_9_81
*1042 FILLER_9_93
*1043 PHY_0
*1044 PHY_1
*1045 PHY_10
*1046 PHY_11
*1047 PHY_12
*1048 PHY_13
*1049 PHY_14
*1050 PHY_15
*1051 PHY_16
*1052 PHY_17
*1053 PHY_18
*1054 PHY_19
*1055 PHY_2
*1056 PHY_20
*1057 PHY_21
*1058 PHY_22
*1059 PHY_23
*1060 PHY_24
*1061 PHY_25
*1062 PHY_26
*1063 PHY_27
*1064 PHY_28
*1065 PHY_29
*1066 PHY_3
*1067 PHY_30
*1068 PHY_31
*1069 PHY_32
*1070 PHY_33
*1071 PHY_34
*1072 PHY_35
*1073 PHY_36
*1074 PHY_37
*1075 PHY_38
*1076 PHY_39
*1077 PHY_4
*1078 PHY_40
*1079 PHY_41
*1080 PHY_42
*1081 PHY_43
*1082 PHY_44
*1083 PHY_45
*1084 PHY_46
*1085 PHY_47
*1086 PHY_48
*1087 PHY_49
*1088 PHY_5
*1089 PHY_50
*1090 PHY_51
*1091 PHY_52
*1092 PHY_53
*1093 PHY_54
*1094 PHY_55
*1095 PHY_56
*1096 PHY_57
*1097 PHY_58
*1098 PHY_59
*1099 PHY_6
*1100 PHY_60
*1101 PHY_61
*1102 PHY_62
*1103 PHY_63
*1104 PHY_64
*1105 PHY_65
*1106 PHY_66
*1107 PHY_67
*1108 PHY_68
*1109 PHY_69
*1110 PHY_7
*1111 PHY_70
*1112 PHY_71
*1113 PHY_72
*1114 PHY_73
*1115 PHY_74
*1116 PHY_75
*1117 PHY_76
*1118 PHY_77
*1119 PHY_78
*1120 PHY_79
*1121 PHY_8
*1122 PHY_9
*1123 TAP_100
*1124 TAP_101
*1125 TAP_102
*1126 TAP_103
*1127 TAP_104
*1128 TAP_105
*1129 TAP_106
*1130 TAP_107
*1131 TAP_108
*1132 TAP_109
*1133 TAP_110
*1134 TAP_111
*1135 TAP_112
*1136 TAP_113
*1137 TAP_114
*1138 TAP_115
*1139 TAP_116
*1140 TAP_117
*1141 TAP_118
*1142 TAP_119
*1143 TAP_120
*1144 TAP_121
*1145 TAP_122
*1146 TAP_123
*1147 TAP_124
*1148 TAP_125
*1149 TAP_126
*1150 TAP_127
*1151 TAP_128
*1152 TAP_129
*1153 TAP_130
*1154 TAP_131
*1155 TAP_132
*1156 TAP_133
*1157 TAP_134
*1158 TAP_135
*1159 TAP_136
*1160 TAP_137
*1161 TAP_138
*1162 TAP_139
*1163 TAP_140
*1164 TAP_141
*1165 TAP_142
*1166 TAP_143
*1167 TAP_144
*1168 TAP_145
*1169 TAP_146
*1170 TAP_147
*1171 TAP_148
*1172 TAP_149
*1173 TAP_150
*1174 TAP_151
*1175 TAP_152
*1176 TAP_153
*1177 TAP_154
*1178 TAP_155
*1179 TAP_156
*1180 TAP_157
*1181 TAP_158
*1182 TAP_159
*1183 TAP_160
*1184 TAP_161
*1185 TAP_162
*1186 TAP_163
*1187 TAP_164
*1188 TAP_165
*1189 TAP_166
*1190 TAP_167
*1191 TAP_168
*1192 TAP_169
*1193 TAP_170
*1194 TAP_171
*1195 TAP_172
*1196 TAP_173
*1197 TAP_174
*1198 TAP_175
*1199 TAP_176
*1200 TAP_177
*1201 TAP_178
*1202 TAP_179
*1203 TAP_180
*1204 TAP_181
*1205 TAP_182
*1206 TAP_183
*1207 TAP_184
*1208 TAP_185
*1209 TAP_186
*1210 TAP_187
*1211 TAP_188
*1212 TAP_189
*1213 TAP_190
*1214 TAP_191
*1215 TAP_192
*1216 TAP_193
*1217 TAP_194
*1218 TAP_195
*1219 TAP_196
*1220 TAP_197
*1221 TAP_198
*1222 TAP_199
*1223 TAP_200
*1224 TAP_201
*1225 TAP_202
*1226 TAP_203
*1227 TAP_204
*1228 TAP_205
*1229 TAP_206
*1230 TAP_207
*1231 TAP_208
*1232 TAP_209
*1233 TAP_210
*1234 TAP_211
*1235 TAP_212
*1236 TAP_213
*1237 TAP_214
*1238 TAP_215
*1239 TAP_216
*1240 TAP_217
*1241 TAP_218
*1242 TAP_219
*1243 TAP_220
*1244 TAP_221
*1245 TAP_222
*1246 TAP_223
*1247 TAP_224
*1248 TAP_225
*1249 TAP_226
*1250 TAP_227
*1251 TAP_228
*1252 TAP_229
*1253 TAP_230
*1254 TAP_231
*1255 TAP_232
*1256 TAP_233
*1257 TAP_234
*1258 TAP_235
*1259 TAP_236
*1260 TAP_237
*1261 TAP_238
*1262 TAP_239
*1263 TAP_240
*1264 TAP_241
*1265 TAP_242
*1266 TAP_243
*1267 TAP_244
*1268 TAP_245
*1269 TAP_246
*1270 TAP_247
*1271 TAP_80
*1272 TAP_81
*1273 TAP_82
*1274 TAP_83
*1275 TAP_84
*1276 TAP_85
*1277 TAP_86
*1278 TAP_87
*1279 TAP_88
*1280 TAP_89
*1281 TAP_90
*1282 TAP_91
*1283 TAP_92
*1284 TAP_93
*1285 TAP_94
*1286 TAP_95
*1287 TAP_96
*1288 TAP_97
*1289 TAP_98
*1290 TAP_99
*1291 _3_
*1292 _4_
*1293 _5_
*1294 _6_
*1295 input1
*1296 input10
*1297 input11
*1298 input2
*1299 input3
*1300 input4
*1301 input5
*1302 input6
*1303 input7
*1304 input8
*1305 input9
*1306 output12

*PORTS
in[0] I
in[1] I
in[2] I
in[3] I
in[4] I
in[5] I
in[6] I
in[7] I
out O
sel[0] I
sel[1] I
sel[2] I

*D_NET *3 0.000455793
*CONN
*P in[0] I
*I *1295:A I *D sky130_fd_sc_hd__clkbuf_1
*CAP
1 in[0] 0.000227896
2 *1295:A 0.000227896
3 *1295:A *24:8 0
*RES
1 in[0] *1295:A 5.61177 
*END

*D_NET *4 0.00139525
*CONN
*P in[1] I
*I *1298:A I *D sky130_fd_sc_hd__clkbuf_1
*CAP
1 in[1] 0.000697623
2 *1298:A 0.000697623
*RES
1 in[1] *1298:A 16.38 
*END

*D_NET *5 0.000402387
*CONN
*P in[2] I
*I *1299:A I *D sky130_fd_sc_hd__clkbuf_1
*CAP
1 in[2] 0.000201194
2 *1299:A 0.000201194
*RES
1 in[2] *1299:A 5.10177 
*END

*D_NET *6 0.00126304
*CONN
*P in[3] I
*I *1300:A I *D sky130_fd_sc_hd__clkbuf_1
*CAP
1 in[3] 0.000631522
2 *1300:A 0.000631522
*RES
1 in[3] *1300:A 15.18 
*END

*D_NET *7 0.000987533
*CONN
*P in[4] I
*I *1301:A I *D sky130_fd_sc_hd__clkbuf_1
*CAP
1 in[4] 0.000493766
2 *1301:A 0.000493766
3 *1301:A *25:7 0
4 *1301:A *26:9 0
*RES
1 in[4] *1301:A 12.765 
*END

*D_NET *8 0.00169351
*CONN
*P in[5] I
*I *1302:A I *D sky130_fd_sc_hd__clkbuf_1
*CAP
1 in[5] 0.000846757
2 *1302:A 0.000846757
3 *1302:A *26:9 0
*RES
1 in[5] *1302:A 15.0646 
*END

*D_NET *9 0.00112541
*CONN
*P in[6] I
*I *1303:A I *D sky130_fd_sc_hd__clkbuf_1
*CAP
1 in[6] 0.000562703
2 *1303:A 0.000562703
3 *1303:A *22:5 0
*RES
1 in[6] *1303:A 14.925 
*END

*D_NET *10 0.000971073
*CONN
*P in[7] I
*I *1304:A I *D sky130_fd_sc_hd__clkbuf_1
*CAP
1 in[7] 0.000485537
2 *1304:A 0.000485537
3 *1304:A *28:8 0
*RES
1 in[7] *1304:A 8.17963 
*END

*D_NET *11 0.000697896
*CONN
*P out O
*I *1306:X O *D sky130_fd_sc_hd__buf_2
*CAP
1 out 0.000348948
2 *1306:X 0.000348948
*RES
1 *1306:X out 10.185 
*END

*D_NET *12 0.00123139
*CONN
*P sel[0] I
*I *1305:A I *D sky130_fd_sc_hd__dlymetal6s2s_1
*CAP
1 sel[0] 0.000615694
2 *1305:A 0.000615694
*RES
1 sel[0] *1305:A 13.0068 
*END

*D_NET *13 0.000765505
*CONN
*P sel[1] I
*I *1296:A I *D sky130_fd_sc_hd__clkbuf_1
*CAP
1 sel[1] 0.000382753
2 *1296:A 0.000382753
3 *1296:A *29:11 0
*RES
1 sel[1] *1296:A 10.86 
*END

*D_NET *14 0.000534839
*CONN
*P sel[2] I
*I *1297:A I *D sky130_fd_sc_hd__clkbuf_1
*CAP
1 sel[2] 0.000267419
2 *1297:A 0.000267419
*RES
1 sel[2] *1297:A 5.07983 
*END

*D_NET *15 0.000986767
*CONN
*I *1293:A0 I *D sky130_fd_sc_hd__mux2_1
*I *1291:X O *D sky130_fd_sc_hd__mux4_1
*CAP
1 *1293:A0 0.000493384
2 *1291:X 0.000493384
3 *1293:A0 *1293:A1 0
*RES
1 *1291:X *1293:A0 16.17 
*END

*D_NET *16 0.000195823
*CONN
*I *1293:A1 I *D sky130_fd_sc_hd__mux2_1
*I *1292:X O *D sky130_fd_sc_hd__mux4_1
*CAP
1 *1293:A1 9.79114e-05
2 *1292:X 9.79114e-05
3 *1293:A0 *1293:A1 0
*RES
1 *1292:X *1293:A1 9.03 
*END

*D_NET *17 0.000278934
*CONN
*I *1294:A I *D sky130_fd_sc_hd__clkbuf_1
*I *1293:X O *D sky130_fd_sc_hd__mux2_1
*CAP
1 *1294:A 0.000139467
2 *1293:X 0.000139467
*RES
1 *1293:X *1294:A 5.645 
*END

*D_NET *18 0.00534295
*CONN
*I *1291:A0 I *D sky130_fd_sc_hd__mux4_1
*I *1295:X O *D sky130_fd_sc_hd__clkbuf_1
*CAP
1 *1291:A0 0.00030118
2 *1295:X 0.0023703
3 *18:10 0.00267148
4 *1291:A0 *1291:A3 0
*RES
1 *1295:X *18:10 48.59 
2 *18:10 *1291:A0 6.88 
*END

*D_NET *19 0.00643995
*CONN
*I *1291:S1 I *D sky130_fd_sc_hd__mux4_1
*I *1292:S1 I *D sky130_fd_sc_hd__mux4_1
*I *1296:X O *D sky130_fd_sc_hd__clkbuf_1
*CAP
1 *1291:S1 0
2 *1292:S1 0.0006434
3 *1296:X 0.00193034
4 *19:12 0.00128964
5 *19:8 0.00257658
6 *1292:S1 *1292:S0 0
7 *19:8 *23:10 0
8 *19:12 *29:12 0
*RES
1 *1296:X *19:8 42.425 
2 *19:8 *19:12 13.49 
3 *19:12 *1292:S1 15.075 
4 *19:12 *1291:S1 3.6 
*END

*D_NET *20 0.0052793
*CONN
*I *1293:S I *D sky130_fd_sc_hd__mux2_1
*I *1297:X O *D sky130_fd_sc_hd__clkbuf_1
*CAP
1 *1293:S 0.00199361
2 *1297:X 0.000646043
3 *20:10 0.00263965
*RES
1 *1297:X *20:10 17.885 
2 *20:10 *1293:S 36.55 
*END

*D_NET *21 0.00524806
*CONN
*I *1306:A I *D sky130_fd_sc_hd__buf_2
*I *1294:X O *D sky130_fd_sc_hd__clkbuf_1
*CAP
1 *1306:A 0.000478295
2 *1294:X 0.00214574
3 *21:10 0.00262403
*RES
1 *1294:X *21:10 46.16 
2 *21:10 *1306:A 9.985 
*END

*D_NET *22 0.00942369
*CONN
*I *1291:A1 I *D sky130_fd_sc_hd__mux4_1
*I *1298:X O *D sky130_fd_sc_hd__clkbuf_1
*CAP
1 *1291:A1 0.00200978
2 *1298:X 0.00270207
3 *22:5 0.00471184
4 *1291:A1 *23:10 0
5 *22:5 *27:7 0
6 *22:5 *29:11 0
7 *1303:A *22:5 0
*RES
1 *1298:X *22:5 48.97 
2 *22:5 *1291:A1 43.955 
*END

*D_NET *23 0.00530279
*CONN
*I *1291:A2 I *D sky130_fd_sc_hd__mux4_1
*I *1299:X O *D sky130_fd_sc_hd__clkbuf_1
*CAP
1 *1291:A2 0.000383823
2 *1299:X 0.00226757
3 *23:10 0.00265139
4 *1291:A2 *1291:A3 0
5 *1291:A1 *23:10 0
6 *19:8 *23:10 0
*RES
1 *1299:X *23:10 46.415 
2 *23:10 *1291:A2 12.3837 
*END

*D_NET *24 0.00812637
*CONN
*I *1291:A3 I *D sky130_fd_sc_hd__mux4_1
*I *1300:X O *D sky130_fd_sc_hd__clkbuf_1
*CAP
1 *1291:A3 0.00198591
2 *1300:X 0.00207728
3 *24:8 0.00406319
4 *1291:A0 *1291:A3 0
5 *1291:A2 *1291:A3 0
6 *1295:A *24:8 0
*RES
1 *1300:X *24:8 45.23 
2 *24:8 *1291:A3 36.52 
*END

*D_NET *25 0.00510817
*CONN
*I *1292:A0 I *D sky130_fd_sc_hd__mux4_1
*I *1301:X O *D sky130_fd_sc_hd__clkbuf_1
*CAP
1 *1292:A0 0.00199707
2 *1301:X 0.000557012
3 *25:7 0.00255409
4 *1292:A0 *1292:A1 0
5 *25:7 *26:9 0
6 *1301:A *25:7 0
*RES
1 *1301:X *25:7 13.365 
2 *25:7 *1292:A0 41.7 
*END

*D_NET *26 0.00749966
*CONN
*I *1292:A1 I *D sky130_fd_sc_hd__mux4_1
*I *1302:X O *D sky130_fd_sc_hd__clkbuf_1
*CAP
1 *1292:A1 0.00205056
2 *1302:X 0.00169927
3 *26:9 0.00374983
4 *1292:A0 *1292:A1 0
5 *1301:A *26:9 0
6 *1302:A *26:9 0
7 *25:7 *26:9 0
*RES
1 *1302:X *26:9 33.39 
2 *26:9 *1292:A1 42.72 
*END

*D_NET *27 0.00569901
*CONN
*I *1292:A2 I *D sky130_fd_sc_hd__mux4_1
*I *1303:X O *D sky130_fd_sc_hd__clkbuf_1
*CAP
1 *1292:A2 0.00211538
2 *1303:X 0.000734127
3 *27:7 0.00284951
4 *22:5 *27:7 0
*RES
1 *1303:X *27:7 16.47 
2 *27:7 *1292:A2 43.9388 
*END

*D_NET *28 0.0058674
*CONN
*I *1292:A3 I *D sky130_fd_sc_hd__mux4_1
*I *1304:X O *D sky130_fd_sc_hd__clkbuf_1
*CAP
1 *1292:A3 0.00189906
2 *1304:X 0.00103464
3 *28:8 0.0029337
4 *1304:A *28:8 0
*RES
1 *1304:X *28:8 25.34 
2 *28:8 *1292:A3 34.945 
*END

*D_NET *29 0.00959536
*CONN
*I *1291:S0 I *D sky130_fd_sc_hd__mux4_1
*I *1292:S0 I *D sky130_fd_sc_hd__mux4_1
*I *1305:X O *D sky130_fd_sc_hd__dlymetal6s2s_1
*CAP
1 *1291:S0 0
2 *1292:S0 0.000936969
3 *1305:X 0.00184002
4 *29:12 0.00295766
5 *29:11 0.00386071
6 *1292:S1 *1292:S0 0
7 *1296:A *29:11 0
8 *19:12 *29:12 0
9 *22:5 *29:11 0
*RES
1 *1305:X *29:11 35.91 
2 *29:11 *29:12 38.61 
3 *29:12 *1292:S0 20.295 
4 *29:12 *1291:S0 3.6 
*END
